version 3
run General-0-20230403-14:18:40-342283
attr configname General
attr datetime 20230403-14:18:40
attr datetimef 20230403-141840
attr experiment General
attr inifile omnetpp.ini
attr iterationvars "$0=\"avg\""
attr iterationvarsd avg
attr iterationvarsf avg-
attr measurement "$0=\"avg\""
attr network flora.simulations.LoRaNetworkTest
attr processid 342283
attr repetition 0
attr replication #0
attr resultdir results
attr runnumber 0
attr seedset 0
config image-path ../../inet4.4/images
config network flora.simulations.LoRaNetworkTest
config **.maxTransmissionDuration 4s
config **.energyDetection -110dBm
config **.vector-recording true
config rng-class cMersenneTwister
config **.loRaGW[*].numUdpApps 1
config **.loRaGW[0].packetForwarder.localPort 2000
config **.loRaGW[0].packetForwarder.destPort 1000
config **.loRaGW[0].packetForwarder.destAddresses "\"networkServer\""
config **.loRaGW[0].packetForwarder.indexNumber 0
config **.networkServer.numApps 1
config **.networkServer.**.evaluateADRinServer true
config **.networkServer.app[0].typename NetworkServerApp
config **.networkServer.app[0].destAddresses "\"loRaGW[0]\""
config **.networkServer.app[0].destPort 2000
config **.networkServer.app[0].localPort 1000
config **.networkServer.app[0].adrMethod "\"avg\""
config **.numberOfPacketsToSend 0
config sim-time-limit 1d
config simtime-resolution -11
config repeat 30
config **.timeToFirstPacket exponential(1000s)
config **.timeToNextPacket exponential(1000s)
config **.alohaChannelModel false
config **.numberOfNodes 10
config **.constraintAreaMaxX 1000m
config **.constraintAreaMaxY 1000m
config **.loRaNodes[0].**.initialX 300m
config **.loRaNodes[0].**.initialY 350m
config **.loRaNodes[*].**initialLoRaSF "int(uniform(7.0, 12.0))"
config **.loRaNodes[*].**initialLoRaTP 14dBm
config **.loRaNodes[*].**initialLoRaBW "125 kHz"
config **.loRaNodes[*].**initialLoRaCR 4
config **.loRaNodes[*].**.initFromDisplayString false
config **.loRaNodes[*].**.evaluateADRinNode true
config **.loRaNodes[*].numApps 1
config **.loRaNodes[*].app[0].typename SimpleLoRaApp
config **.loRaNodes[*].initialX "uniform(0m, 1000m)"
config **.loRaNodes[*].initialY "uniform(0m, 1000m)"
config **.numberOfGateways 1
config **.loRaGW[0].**.initialX 200.00m
config **.loRaGW[0].**.initialY 200.00m
config **.LoRaGWNic.radio.iAmGateway true
config **.loRaGW[*].**.initFromDisplayString false
config **.loRaNodes[*].LoRaNic.radio.energyConsumer.typename LoRaEnergyConsumer
config **.loRaNodes[*].**.energySourceModule "\"^.IdealEpEnergyStorage\""
config **.loRaNodes[*].LoRaNic.radio.energyConsumer.configFile "xmldoc(\"energyConsumptionParameters.xml\")"
config **.sigma 3.57
config **.constraintAreaMinX 0m
config **.constraintAreaMinY 0m
config **.constraintAreaMinZ 0m
config **.constraintAreaMaxZ 0m
config LoRaNetworkTest.**.radio.separateTransmissionParts false
config LoRaNetworkTest.**.radio.separateReceptionParts false
config **.ipv4Delayer.config "xmldoc(\"cloudDelays.xml\")"
config **.radio.radioMediumModule "\"LoRaMedium\""
config **.LoRaMedium.pathLossType "\"LoRaLogNormalShadowing\""
config **.minInterferenceTime 0s
config **.displayAddresses false
config **.LoRaMedium.mediumLimitCacheType "\"LoRaMediumCache\""
config **.LoRaMedium.rangeFilter "\"communicationRange\""
config **.LoRaMedium.neighborCacheType "\"LoRaNeighborCache\""
config **.LoRaMedium.neighborCache.range 546m
config **.LoRaMedium.neighborCache.refillPeriod 3000s

par LoRaNetworkTest.networkServer.ethg$o[0].channel typename "\"inet.node.ethernet.Eth1G\""
par LoRaNetworkTest.networkServer.ethg$o[0].channel disabled false
attr mutable ""
par LoRaNetworkTest.networkServer.ethg$o[0].channel delay 5e-08s
attr mutable ""
attr unit s
par LoRaNetworkTest.networkServer.ethg$o[0].channel datarate 1e+09bps
attr mutable ""
attr unit bps
par LoRaNetworkTest.networkServer.ethg$o[0].channel ber 0
attr mutable ""
par LoRaNetworkTest.networkServer.ethg$o[0].channel per 0
attr mutable ""
par LoRaNetworkTest.networkServer.ethg$o[0].channel length 10m
attr unit m
par LoRaNetworkTest.nsRouter.ethg$o[0].channel typename "\"inet.node.ethernet.Eth1G\""
par LoRaNetworkTest.nsRouter.ethg$o[0].channel disabled false
attr mutable ""
par LoRaNetworkTest.nsRouter.ethg$o[0].channel delay 5e-08s
attr mutable ""
attr unit s
par LoRaNetworkTest.nsRouter.ethg$o[0].channel datarate 1e+09bps
attr mutable ""
attr unit bps
par LoRaNetworkTest.nsRouter.ethg$o[0].channel ber 0
attr mutable ""
par LoRaNetworkTest.nsRouter.ethg$o[0].channel per 0
attr mutable ""
par LoRaNetworkTest.nsRouter.ethg$o[0].channel length 10m
attr unit m
par LoRaNetworkTest.nsRouter.pppg$o[0].channel typename "\"inet.node.ethernet.Eth1G\""
par LoRaNetworkTest.nsRouter.pppg$o[0].channel disabled false
attr mutable ""
par LoRaNetworkTest.nsRouter.pppg$o[0].channel delay 5e-08s
attr mutable ""
attr unit s
par LoRaNetworkTest.nsRouter.pppg$o[0].channel datarate 1e+09bps
attr mutable ""
attr unit bps
par LoRaNetworkTest.nsRouter.pppg$o[0].channel ber 0
attr mutable ""
par LoRaNetworkTest.nsRouter.pppg$o[0].channel per 0
attr mutable ""
par LoRaNetworkTest.nsRouter.pppg$o[0].channel length 10m
attr unit m
par LoRaNetworkTest.internetCloud.pppg$o[0].channel typename "\"inet.node.ethernet.Eth1G\""
par LoRaNetworkTest.internetCloud.pppg$o[0].channel disabled false
attr mutable ""
par LoRaNetworkTest.internetCloud.pppg$o[0].channel delay 5e-08s
attr mutable ""
attr unit s
par LoRaNetworkTest.internetCloud.pppg$o[0].channel datarate 1e+09bps
attr mutable ""
attr unit bps
par LoRaNetworkTest.internetCloud.pppg$o[0].channel ber 0
attr mutable ""
par LoRaNetworkTest.internetCloud.pppg$o[0].channel per 0
attr mutable ""
par LoRaNetworkTest.internetCloud.pppg$o[0].channel length 10m
attr unit m
par LoRaNetworkTest.internetCloud.pppg$o[1].channel typename "\"inet.node.ethernet.Eth1G\""
par LoRaNetworkTest.internetCloud.pppg$o[1].channel disabled false
attr mutable ""
par LoRaNetworkTest.internetCloud.pppg$o[1].channel delay 5e-08s
attr mutable ""
attr unit s
par LoRaNetworkTest.internetCloud.pppg$o[1].channel datarate 1e+09bps
attr mutable ""
attr unit bps
par LoRaNetworkTest.internetCloud.pppg$o[1].channel ber 0
attr mutable ""
par LoRaNetworkTest.internetCloud.pppg$o[1].channel per 0
attr mutable ""
par LoRaNetworkTest.internetCloud.pppg$o[1].channel length 10m
attr unit m
par LoRaNetworkTest.gwRouter[0].pppg$o[0].channel typename "\"inet.node.ethernet.Eth1G\""
par LoRaNetworkTest.gwRouter[0].pppg$o[0].channel disabled false
attr mutable ""
par LoRaNetworkTest.gwRouter[0].pppg$o[0].channel delay 5e-08s
attr mutable ""
attr unit s
par LoRaNetworkTest.gwRouter[0].pppg$o[0].channel datarate 1e+09bps
attr mutable ""
attr unit bps
par LoRaNetworkTest.gwRouter[0].pppg$o[0].channel ber 0
attr mutable ""
par LoRaNetworkTest.gwRouter[0].pppg$o[0].channel per 0
attr mutable ""
par LoRaNetworkTest.gwRouter[0].pppg$o[0].channel length 10m
attr unit m
par LoRaNetworkTest.gwRouter[0].ethg$o[0].channel typename "\"inet.node.ethernet.Eth1G\""
par LoRaNetworkTest.gwRouter[0].ethg$o[0].channel disabled false
attr mutable ""
par LoRaNetworkTest.gwRouter[0].ethg$o[0].channel delay 5e-08s
attr mutable ""
attr unit s
par LoRaNetworkTest.gwRouter[0].ethg$o[0].channel datarate 1e+09bps
attr mutable ""
attr unit bps
par LoRaNetworkTest.gwRouter[0].ethg$o[0].channel ber 0
attr mutable ""
par LoRaNetworkTest.gwRouter[0].ethg$o[0].channel per 0
attr mutable ""
par LoRaNetworkTest.gwRouter[0].ethg$o[0].channel length 10m
attr unit m
par LoRaNetworkTest.loRaGW[0].ethg$o[0].channel typename "\"inet.node.ethernet.Eth1G\""
par LoRaNetworkTest.loRaGW[0].ethg$o[0].channel disabled false
attr mutable ""
par LoRaNetworkTest.loRaGW[0].ethg$o[0].channel delay 5e-08s
attr mutable ""
attr unit s
par LoRaNetworkTest.loRaGW[0].ethg$o[0].channel datarate 1e+09bps
attr mutable ""
attr unit bps
par LoRaNetworkTest.loRaGW[0].ethg$o[0].channel ber 0
attr mutable ""
par LoRaNetworkTest.loRaGW[0].ethg$o[0].channel per 0
attr mutable ""
par LoRaNetworkTest.loRaGW[0].ethg$o[0].channel length 10m
attr unit m
par LoRaNetworkTest.loRaNodes[0].interfaceTable typename "\"inet.networklayer.common.InterfaceTable\""
par LoRaNetworkTest.loRaNodes[0].interfaceTable displayAddresses false
par LoRaNetworkTest.loRaNodes[0].mobility typename "\"inet.mobility.static.StationaryMobility\""
par LoRaNetworkTest.loRaNodes[0].mobility subjectModule "\"^\""
par LoRaNetworkTest.loRaNodes[0].mobility coordinateSystemModule "\"\""
par LoRaNetworkTest.loRaNodes[0].mobility displayStringTextFormat "\"p: %p\\nv: %v\""
attr mutable ""
par LoRaNetworkTest.loRaNodes[0].mobility updateDisplayString true
par LoRaNetworkTest.loRaNodes[0].mobility constraintAreaMinX 0m
attr unit m
par LoRaNetworkTest.loRaNodes[0].mobility constraintAreaMinY 0m
attr unit m
par LoRaNetworkTest.loRaNodes[0].mobility constraintAreaMinZ 0m
attr unit m
par LoRaNetworkTest.loRaNodes[0].mobility constraintAreaMaxX 1000m
attr unit m
par LoRaNetworkTest.loRaNodes[0].mobility constraintAreaMaxY 1000m
attr unit m
par LoRaNetworkTest.loRaNodes[0].mobility constraintAreaMaxZ 0m
attr unit m
par LoRaNetworkTest.loRaNodes[0].mobility initialX 300m
attr unit m
par LoRaNetworkTest.loRaNodes[0].mobility initialY 350m
attr unit m
par LoRaNetworkTest.loRaNodes[0].mobility initialZ 0m
attr unit m
par LoRaNetworkTest.loRaNodes[0].mobility initialLatitude "nan deg"
attr unit deg
par LoRaNetworkTest.loRaNodes[0].mobility initialLongitude "nan deg"
attr unit deg
par LoRaNetworkTest.loRaNodes[0].mobility initialAltitude 0m
attr unit m
par LoRaNetworkTest.loRaNodes[0].mobility initialHeading 0deg
attr unit deg
par LoRaNetworkTest.loRaNodes[0].mobility initialElevation 0deg
attr unit deg
par LoRaNetworkTest.loRaNodes[0].mobility initialBank 0deg
attr unit deg
par LoRaNetworkTest.loRaNodes[0].mobility initFromDisplayString false
par LoRaNetworkTest.loRaNodes[0].mobility updateFromDisplayString true
par LoRaNetworkTest.loRaNodes[0].LoRaNic.radioIn.channel typename "\"ned.IdealChannel\""
par LoRaNetworkTest.loRaNodes[0].LoRaNic.mac.upperLayerOut.channel typename "\"ned.IdealChannel\""
par LoRaNetworkTest.loRaNodes[0].LoRaNic.upperLayerIn.channel typename "\"ned.IdealChannel\""
par LoRaNetworkTest.loRaNodes[0].LoRaNic.queue typename "\"inet.queueing.queue.DropTailQueue\""
par LoRaNetworkTest.loRaNodes[0].LoRaNic.queue displayStringTextFormat "\"contains %p pk (%l) pushed %u\\npulled %o removed %r dropped %d\""
par LoRaNetworkTest.loRaNodes[0].LoRaNic.queue packetCapacity -1
par LoRaNetworkTest.loRaNodes[0].LoRaNic.queue dataCapacity -1b
attr unit b
par LoRaNetworkTest.loRaNodes[0].LoRaNic.queue dropperClass "\"inet::queueing::PacketAtCollectionEndDropper\""
par LoRaNetworkTest.loRaNodes[0].LoRaNic.queue comparatorClass "\"\""
par LoRaNetworkTest.loRaNodes[0].LoRaNic.queue bufferModule "\"\""
scalar LoRaNetworkTest.loRaNodes[0].LoRaNic.queue queueLength:last 0
attr autoWarmupFilter false
attr interpolationmode sample-hold
attr recordingmode last
attr source "warmup(atomic(constant0(packetPushEnded) + count(packetPushStarted) - count(packetPulled) - count(packetRemoved) - count(packetDropped)))"
attr title "queue length, last"
attr unit pk
scalar LoRaNetworkTest.loRaNodes[0].LoRaNic.queue queueLength:max 0
attr autoWarmupFilter false
attr interpolationmode sample-hold
attr recordingmode max
attr source "warmup(atomic(constant0(packetPushEnded) + count(packetPushStarted) - count(packetPulled) - count(packetRemoved) - count(packetDropped)))"
attr title "queue length, max"
attr unit pk
scalar LoRaNetworkTest.loRaNodes[0].LoRaNic.queue queueLength:timeavg 0
attr autoWarmupFilter false
attr interpolationmode sample-hold
attr recordingmode timeavg
attr source "warmup(atomic(constant0(packetPushEnded) + count(packetPushStarted) - count(packetPulled) - count(packetRemoved) - count(packetDropped)))"
attr title "queue length, timeavg"
attr unit pk
scalar LoRaNetworkTest.loRaNodes[0].LoRaNic.queue queueBitLength:last 0
attr autoWarmupFilter false
attr interpolationmode sample-hold
attr recordingmode last
attr source "warmup(atomic(constant0(packetPushEnded) + sum(packetLength(packetPushStarted)) - sum(packetLength(packetPulled)) - sum(packetLength(packetRemoved)) - sum(packetLength(packetDropped))))"
attr title "queue bit length, last"
attr unit b
scalar LoRaNetworkTest.loRaNodes[0].LoRaNic.queue queueBitLength:max 0
attr autoWarmupFilter false
attr interpolationmode sample-hold
attr recordingmode max
attr source "warmup(atomic(constant0(packetPushEnded) + sum(packetLength(packetPushStarted)) - sum(packetLength(packetPulled)) - sum(packetLength(packetRemoved)) - sum(packetLength(packetDropped))))"
attr title "queue bit length, max"
attr unit b
scalar LoRaNetworkTest.loRaNodes[0].LoRaNic.queue queueBitLength:timeavg 0
attr autoWarmupFilter false
attr interpolationmode sample-hold
attr recordingmode timeavg
attr source "warmup(atomic(constant0(packetPushEnded) + sum(packetLength(packetPushStarted)) - sum(packetLength(packetPulled)) - sum(packetLength(packetRemoved)) - sum(packetLength(packetDropped))))"
attr title "queue bit length, timeavg"
attr unit b
statistic LoRaNetworkTest.loRaNodes[0].LoRaNic.queue queueingTime:histogram
field count 70
field mean 0
field stddev 0
field min 0
field max 0
field sum 0
field sqrsum 0
attr interpolationmode none
attr recordingmode histogram
attr source queueingTime(packetPulled)
attr title "queueing times"
attr unit s
bin	-inf	0
bin	-0.5	0
bin	-0.48	0
bin	-0.46	0
bin	-0.44	0
bin	-0.42	0
bin	-0.4	0
bin	-0.38	0
bin	-0.36	0
bin	-0.34	0
bin	-0.32	0
bin	-0.3	0
bin	-0.28	0
bin	-0.26	0
bin	-0.24	0
bin	-0.22	0
bin	-0.2	0
bin	-0.18	0
bin	-0.16	0
bin	-0.14	0
bin	-0.12	0
bin	-0.1	0
bin	-0.08	0
bin	-0.06	0
bin	-0.04	0
bin	-0.02	0
bin	0	70
bin	0.02	0
bin	0.04	0
bin	0.06	0
bin	0.08	0
bin	0.1	0
bin	0.12	0
bin	0.14	0
bin	0.16	0
bin	0.18	0
bin	0.2	0
bin	0.22	0
bin	0.24	0
bin	0.26	0
bin	0.28	0
bin	0.3	0
bin	0.32	0
bin	0.34	0
bin	0.36	0
bin	0.38	0
bin	0.4	0
bin	0.42	0
bin	0.44	0
bin	0.46	0
bin	0.48	0
bin	0.5	0
scalar LoRaNetworkTest.loRaNodes[0].LoRaNic.queue outgoingPackets:count 70
attr recordingmode count
attr source packetPulled
attr title "outgoing packets, count"
attr unit pk
scalar LoRaNetworkTest.loRaNodes[0].LoRaNic.queue outgoingPacketLengths:sum 5600
attr interpolationmode none
attr recordingmode sum
attr source packetLength(packetPulled)
attr title "outgoing packet lengths, sum"
attr unit b
statistic LoRaNetworkTest.loRaNodes[0].LoRaNic.queue outgoingPacketLengths:histogram
field count 70
field mean 80
field stddev 0
field min 80
field max 80
field sum 5600
field sqrsum 448000
attr interpolationmode none
attr recordingmode histogram
attr source packetLength(packetPulled)
attr title "outgoing packet lengths"
attr unit b
bin	-inf	0
bin	79	0
bin	80	70
bin	81	0
statistic LoRaNetworkTest.loRaNodes[0].LoRaNic.queue flowQueueingTime:histogram
field count 0
field mean -nan
field stddev -nan
field min -nan
field max -nan
field sum 0
field sqrsum 0
attr interpolationmode none
attr recordingmode histogram
attr source queueingTime(demuxFlow(packetPulled))
attr title "flow queueing times"
attr unit s
bin	-inf	0
bin	0	0
bin	1	0
scalar LoRaNetworkTest.loRaNodes[0].LoRaNic.queue incomingPackets:count 70
attr recordingmode count
attr source packetPushStarted
attr title "incoming packets, count"
attr unit pk
scalar LoRaNetworkTest.loRaNodes[0].LoRaNic.queue incomingPacketLengths:sum 5600
attr interpolationmode none
attr recordingmode sum
attr source packetLength(packetPushStarted)
attr title "incoming packet lengths, sum"
attr unit b
statistic LoRaNetworkTest.loRaNodes[0].LoRaNic.queue incomingPacketLengths:histogram
field count 70
field mean 80
field stddev 0
field min 80
field max 80
field sum 5600
field sqrsum 448000
attr interpolationmode none
attr recordingmode histogram
attr source packetLength(packetPushStarted)
attr title "incoming packet lengths"
attr unit b
bin	-inf	0
bin	79	0
bin	80	70
bin	81	0
scalar LoRaNetworkTest.loRaNodes[0].LoRaNic.queue droppedPacketsQueueOverflow:count 0
attr interpolationmode none
attr recordingmode count
attr source packetDropReasonIsQueueOverflow(packetDropped)
attr title "dropped packets: queue overflow, count"
attr unit pk
scalar LoRaNetworkTest.loRaNodes[0].LoRaNic.queue droppedPacketLengthsQueueOverflow:sum 0
attr interpolationmode none
attr recordingmode sum
attr source packetLength(packetDropReasonIsQueueOverflow(packetDropped))
attr title "dropped packet lengths: queue overflow, sum"
attr unit b
par LoRaNetworkTest.loRaNodes[0].LoRaNic.mac typename "\"flora.LoRa.LoRaMac\""
par LoRaNetworkTest.loRaNodes[0].LoRaNic.mac interfaceTableModule "\"LoRaNetworkTest.loRaNodes[0].interfaceTable\""
par LoRaNetworkTest.loRaNodes[0].LoRaNic.mac radioModule "\"^.radio\""
par LoRaNetworkTest.loRaNodes[0].LoRaNic.mac address "\"0A-AA-00-00-00-01\""
attr mutable ""
par LoRaNetworkTest.loRaNodes[0].LoRaNic.mac fcsMode "\"declared\""
attr enum declared,computed
par LoRaNetworkTest.loRaNodes[0].LoRaNic.mac useAck true
par LoRaNetworkTest.loRaNodes[0].LoRaNic.mac bitrate 250bps
attr unit bps
par LoRaNetworkTest.loRaNodes[0].LoRaNic.mac headerLength 17B
attr unit B
par LoRaNetworkTest.loRaNodes[0].LoRaNic.mac ackLength 14B
attr unit B
par LoRaNetworkTest.loRaNodes[0].LoRaNic.mac sifsTime 1e-05s
attr unit s
par LoRaNetworkTest.loRaNodes[0].LoRaNic.mac slotTime 2e-05s
attr unit s
par LoRaNetworkTest.loRaNodes[0].LoRaNic.mac difsTime 5e-05s
attr unit s
par LoRaNetworkTest.loRaNodes[0].LoRaNic.mac ackTimeout 0.44803s
attr unit s
par LoRaNetworkTest.loRaNodes[0].LoRaNic.mac mtu 1500
par LoRaNetworkTest.loRaNodes[0].LoRaNic.mac cwMin 31
par LoRaNetworkTest.loRaNodes[0].LoRaNic.mac cwMax 1023
par LoRaNetworkTest.loRaNodes[0].LoRaNic.mac cwMulticast 31
par LoRaNetworkTest.loRaNodes[0].LoRaNic.mac retryLimit 7
scalar LoRaNetworkTest.loRaNodes[0].LoRaNic.mac numRetry 0
scalar LoRaNetworkTest.loRaNodes[0].LoRaNic.mac numSentWithoutRetry 0
scalar LoRaNetworkTest.loRaNodes[0].LoRaNic.mac numGivenUp 0
scalar LoRaNetworkTest.loRaNodes[0].LoRaNic.mac numSent 70
scalar LoRaNetworkTest.loRaNodes[0].LoRaNic.mac numReceived 2
scalar LoRaNetworkTest.loRaNodes[0].LoRaNic.mac numSentBroadcast 0
scalar LoRaNetworkTest.loRaNodes[0].LoRaNic.mac numReceivedBroadcast 0
scalar LoRaNetworkTest.loRaNodes[0].LoRaNic.mac packetDropIncorrectlyReceived:count 0
attr interpolationmode none
attr recordingmode count
attr source packetDropReasonIsIncorrectlyReceived(packetDropped)
attr title "packet drop: incorrectly received, count"
scalar LoRaNetworkTest.loRaNodes[0].LoRaNic.mac packetDropIncorrectlyReceived:sum(packetBytes) 0
attr interpolationmode none
attr recordingmode sum(packetBytes)
attr source packetDropReasonIsIncorrectlyReceived(packetDropped)
attr title "packet drop: incorrectly received, sum(packetBytes)"
scalar LoRaNetworkTest.loRaNodes[0].LoRaNic.mac packetDropNotAddressedToUs:count 0
attr interpolationmode none
attr recordingmode count
attr source packetDropReasonIsNotAddressedToUs(packetDropped)
attr title "packet drop: not addressed to us, count"
scalar LoRaNetworkTest.loRaNodes[0].LoRaNic.mac packetDropNotAddressedToUs:sum(packetBytes) 0
attr interpolationmode none
attr recordingmode sum(packetBytes)
attr source packetDropReasonIsNotAddressedToUs(packetDropped)
attr title "packet drop: not addressed to us, sum(packetBytes)"
scalar LoRaNetworkTest.loRaNodes[0].LoRaNic.mac packetDropQueueOverflow:count 0
attr interpolationmode none
attr recordingmode count
attr source packetDropReasonIsQueueOverflow(packetDropped)
attr title "packet drop: queue overflow, count"
scalar LoRaNetworkTest.loRaNodes[0].LoRaNic.mac packetDropQueueOverflow:sum(packetBytes) 0
attr interpolationmode none
attr recordingmode sum(packetBytes)
attr source packetDropReasonIsQueueOverflow(packetDropped)
attr title "packet drop: queue overflow, sum(packetBytes)"
scalar LoRaNetworkTest.loRaNodes[0].LoRaNic.mac packetDropRetryLimitReached:count 0
attr interpolationmode none
attr recordingmode count
attr source packetDropReasonIsRetryLimitReached(packetDropped)
attr title "packet drop: retry limit reached, count"
scalar LoRaNetworkTest.loRaNodes[0].LoRaNic.mac packetDropRetryLimitReached:sum(packetBytes) 0
attr interpolationmode none
attr recordingmode sum(packetBytes)
attr source packetDropReasonIsRetryLimitReached(packetDropped)
attr title "packet drop: retry limit reached, sum(packetBytes)"
scalar LoRaNetworkTest.loRaNodes[0].LoRaNic.mac linkBroken:count 0
attr interpolationmode none
attr recordingmode count
attr source linkBroken
attr title "link break, count"
par LoRaNetworkTest.loRaNodes[0].LoRaNic.radio.antenna typename "\"inet.physicallayer.wireless.common.antenna.IsotropicAntenna\""
par LoRaNetworkTest.loRaNodes[0].LoRaNic.radio.antenna mobilityModule "\"^.^.^.mobility\""
par LoRaNetworkTest.loRaNodes[0].LoRaNic.radio.antenna numAntennas 1
par LoRaNetworkTest.loRaNodes[0].LoRaNic.radio.transmitter typename "\"flora.LoRaPhy.LoRaTransmitter\""
par LoRaNetworkTest.loRaNodes[0].LoRaNic.radio.transmitter preambleDuration 0.001s
attr unit s
par LoRaNetworkTest.loRaNodes[0].LoRaNic.radio.transmitter headerLength 0b
attr unit b
par LoRaNetworkTest.loRaNodes[0].LoRaNic.radio.transmitter bitrate 250000bps
attr unit bps
par LoRaNetworkTest.loRaNodes[0].LoRaNic.radio.transmitter power 0.025118W
attr unit W
par LoRaNetworkTest.loRaNodes[0].LoRaNic.radio.transmitter centerFrequency 8.68e+08Hz
attr unit Hz
par LoRaNetworkTest.loRaNodes[0].LoRaNic.radio.transmitter bandwidth 250000Hz
attr unit Hz
par LoRaNetworkTest.loRaNodes[0].LoRaNic.radio.transmitter modulation "\"LoRaModulation\""
scalar LoRaNetworkTest.loRaNodes[0].LoRaNic.radio.transmitter LoRaTransmissionCreated:count 70
attr recordingmode count
attr source LoRaTransmissionCreated
par LoRaNetworkTest.loRaNodes[0].LoRaNic.radio.receiver typename "\"flora.LoRaPhy.LoRaReceiver\""
par LoRaNetworkTest.loRaNodes[0].LoRaNic.radio.receiver snirThreshold -8dB
attr unit dB
par LoRaNetworkTest.loRaNodes[0].LoRaNic.radio.receiver snirThresholdMode "\"min\""
attr unit min,mean
par LoRaNetworkTest.loRaNodes[0].LoRaNic.radio.receiver energyDetection -110dBm
attr unit dBm
par LoRaNetworkTest.loRaNodes[0].LoRaNic.radio.receiver sensitivity -137dBm
attr unit dBm
par LoRaNetworkTest.loRaNodes[0].LoRaNic.radio.receiver centerFrequency 8.68e+08Hz
attr unit Hz
par LoRaNetworkTest.loRaNodes[0].LoRaNic.radio.receiver bandwidth 250000Hz
attr unit Hz
par LoRaNetworkTest.loRaNodes[0].LoRaNic.radio.receiver modulation "\"BPSK\""
par LoRaNetworkTest.loRaNodes[0].LoRaNic.radio.receiver alohaChannelModel false
scalar LoRaNetworkTest.loRaNodes[0].LoRaNic.radio.receiver numCollisions 0
scalar LoRaNetworkTest.loRaNodes[0].LoRaNic.radio.receiver rcvBelowSensitivity 2
scalar LoRaNetworkTest.loRaNodes[0].LoRaNic.radio.receiver LoRaReceptionCollision:count 0
attr recordingmode count
attr source LoRaReceptionCollision
par LoRaNetworkTest.loRaNodes[0].LoRaNic.radio.energyConsumer typename "\"flora.LoRaEnergyModules.LoRaEnergyConsumer\""
par LoRaNetworkTest.loRaNodes[0].LoRaNic.radio.energyConsumer energySourceModule "\"^.IdealEpEnergyStorage\""
par LoRaNetworkTest.loRaNodes[0].LoRaNic.radio.energyConsumer offPowerConsumption 0W
attr unit W
par LoRaNetworkTest.loRaNodes[0].LoRaNic.radio.energyConsumer sleepPowerConsumption 0.001W
attr unit W
par LoRaNetworkTest.loRaNodes[0].LoRaNic.radio.energyConsumer switchingPowerConsumption 0.001W
attr unit W
par LoRaNetworkTest.loRaNodes[0].LoRaNic.radio.energyConsumer receiverIdlePowerConsumption 0.002W
attr unit W
par LoRaNetworkTest.loRaNodes[0].LoRaNic.radio.energyConsumer receiverBusyPowerConsumption 0.005W
attr unit W
par LoRaNetworkTest.loRaNodes[0].LoRaNic.radio.energyConsumer receiverReceivingPowerConsumption 0.01W
attr unit W
par LoRaNetworkTest.loRaNodes[0].LoRaNic.radio.energyConsumer receiverReceivingPreamblePowerConsumption 0.01W
attr unit W
par LoRaNetworkTest.loRaNodes[0].LoRaNic.radio.energyConsumer receiverReceivingHeaderPowerConsumption 0.01W
attr unit W
par LoRaNetworkTest.loRaNodes[0].LoRaNic.radio.energyConsumer receiverReceivingDataPowerConsumption 0.01W
attr unit W
par LoRaNetworkTest.loRaNodes[0].LoRaNic.radio.energyConsumer transmitterIdlePowerConsumption 0.002W
attr unit W
par LoRaNetworkTest.loRaNodes[0].LoRaNic.radio.energyConsumer transmitterTransmittingPowerConsumption 0.1W
attr unit W
par LoRaNetworkTest.loRaNodes[0].LoRaNic.radio.energyConsumer transmitterTransmittingPreamblePowerConsumption 0.1W
attr unit W
par LoRaNetworkTest.loRaNodes[0].LoRaNic.radio.energyConsumer transmitterTransmittingHeaderPowerConsumption 0.1W
attr unit W
par LoRaNetworkTest.loRaNodes[0].LoRaNic.radio.energyConsumer transmitterTransmittingDataPowerConsumption 0.1W
attr unit W
par LoRaNetworkTest.loRaNodes[0].LoRaNic.radio.energyConsumer configFile "<root>...</root> at /home/victorcesc/Downloads/omnetpp-6.0.1/samples/flora/simulations//energyConsumptionParameters.xml:2"
scalar LoRaNetworkTest.loRaNodes[0].LoRaNic.radio.energyConsumer totalEnergyConsumed 6.8863121553626
par LoRaNetworkTest.loRaNodes[0].LoRaNic.radio.IdealEpEnergyStorage typename "\"inet.power.storage.IdealEpEnergyStorage\""
scalar LoRaNetworkTest.loRaNodes[0].LoRaNic.radio.IdealEpEnergyStorage residualEnergyCapacity:last -6.8863121553626
attr interpolationmode linear
attr recordingmode last
attr source residualEnergyCapacityChanged
attr title "Residual energy capacity, last"
par LoRaNetworkTest.loRaNodes[0].LoRaNic.radio typename "\"flora.LoRa.LoRaRadio\""
par LoRaNetworkTest.loRaNodes[0].LoRaNic.radio radioMediumModule "\"LoRaMedium\""
par LoRaNetworkTest.loRaNodes[0].LoRaNic.radio energySourceModule "\"^.IdealEpEnergyStorage\""
par LoRaNetworkTest.loRaNodes[0].LoRaNic.radio initialRadioMode "\"off\""
attr enum off,sleep,receiver,transmitter,transceiver
par LoRaNetworkTest.loRaNodes[0].LoRaNic.radio switchingTimes "\"ms 0 0 0 0 0 0 0 0 0 0 0 0 0 0 0 0 0 0 0 0 0 0 0 0 0\""
par LoRaNetworkTest.loRaNodes[0].LoRaNic.radio sendRawBytes false
par LoRaNetworkTest.loRaNodes[0].LoRaNic.radio separateTransmissionParts false
par LoRaNetworkTest.loRaNodes[0].LoRaNic.radio separateReceptionParts false
par LoRaNetworkTest.loRaNodes[0].LoRaNic.radio displayCommunicationRange false
par LoRaNetworkTest.loRaNodes[0].LoRaNic.radio displayInterferenceRange false
par LoRaNetworkTest.loRaNodes[0].LoRaNic.radio centerFrequency 8.68e+08Hz
attr unit Hz
par LoRaNetworkTest.loRaNodes[0].LoRaNic.radio bandwidth 250000Hz
attr unit Hz
par LoRaNetworkTest.loRaNodes[0].LoRaNic.radio iAmGateway false
scalar LoRaNetworkTest.loRaNodes[0].LoRaNic.radio radioMode:count 425
attr interpolationmode sample-hold
attr recordingmode count
attr source radioModeChanged
attr title "Radio mode, count"
scalar LoRaNetworkTest.loRaNodes[0].LoRaNic.radio receptionState:count 288
attr interpolationmode sample-hold
attr recordingmode count
attr source receptionStateChanged
attr title "Radio reception state, count"
scalar LoRaNetworkTest.loRaNodes[0].LoRaNic.radio transmissionState:count 280
attr interpolationmode sample-hold
attr recordingmode count
attr source transmissionStateChanged
attr title "Radio transmission state, count"
statistic LoRaNetworkTest.loRaNodes[0].LoRaNic.radio minSnir:histogram
field count 2
field mean 2.825900930575
field stddev 1.6668697350617
field min 1.6472460375583
field max 4.0045558235918
field sum 5.6518018611501
field sqrsum 18.749886852514
attr recordingmode histogram
attr source minimumSnir(packetSentToUpper)
attr title "Min SNIR"
bin	-inf	0
bin	1.05	0
bin	1.1	0
bin	1.15	0
bin	1.2	0
bin	1.25	0
bin	1.3	0
bin	1.35	0
bin	1.4	0
bin	1.45	0
bin	1.5	0
bin	1.55	0
bin	1.6	1
bin	1.65	0
bin	1.7	0
bin	1.75	0
bin	1.8	0
bin	1.85	0
bin	1.9	0
bin	1.95	0
bin	2	0
bin	2.05	0
bin	2.1	0
bin	2.15	0
bin	2.2	0
bin	2.25	0
bin	2.3	0
bin	2.35	0
bin	2.4	0
bin	2.45	0
bin	2.5	0
bin	2.55	0
bin	2.6	0
bin	2.65	0
bin	2.7	0
bin	2.75	0
bin	2.8	0
bin	2.85	0
bin	2.9	0
bin	2.95	0
bin	3	0
bin	3.05	0
bin	3.1	0
bin	3.15	0
bin	3.2	0
bin	3.25	0
bin	3.3	0
bin	3.35	0
bin	3.4	0
bin	3.45	0
bin	3.5	0
bin	3.55	0
bin	3.6	0
bin	3.65	0
bin	3.7	0
bin	3.75	0
bin	3.8	0
bin	3.85	0
bin	3.9	0
bin	3.95	0
bin	4	1
bin	4.05	0
bin	4.1	0
bin	4.15	0
bin	4.2	0
bin	4.25	0
bin	4.3	0
bin	4.35	0
bin	4.4	0
bin	4.45	0
bin	4.5	0
bin	4.55	0
bin	4.6	0
statistic LoRaNetworkTest.loRaNodes[0].LoRaNic.radio packetErrorRate:histogram
field count 2
field mean 0
field stddev 0
field min 0
field max 0
field sum 0
field sqrsum 0
attr recordingmode histogram
attr source packetErrorRate(packetSentToUpper)
attr title "Packet error rate"
bin	-inf	0
bin	-0.5	0
bin	-0.48	0
bin	-0.46	0
bin	-0.44	0
bin	-0.42	0
bin	-0.4	0
bin	-0.38	0
bin	-0.36	0
bin	-0.34	0
bin	-0.32	0
bin	-0.3	0
bin	-0.28	0
bin	-0.26	0
bin	-0.24	0
bin	-0.22	0
bin	-0.2	0
bin	-0.18	0
bin	-0.16	0
bin	-0.14	0
bin	-0.12	0
bin	-0.1	0
bin	-0.08	0
bin	-0.06	0
bin	-0.04	0
bin	-0.02	0
bin	0	2
bin	0.02	0
bin	0.04	0
bin	0.06	0
bin	0.08	0
bin	0.1	0
bin	0.12	0
bin	0.14	0
bin	0.16	0
bin	0.18	0
bin	0.2	0
bin	0.22	0
bin	0.24	0
bin	0.26	0
bin	0.28	0
bin	0.3	0
bin	0.32	0
bin	0.34	0
bin	0.36	0
bin	0.38	0
bin	0.4	0
bin	0.42	0
bin	0.44	0
bin	0.46	0
bin	0.48	0
bin	0.5	0
statistic LoRaNetworkTest.loRaNodes[0].LoRaNic.radio bitErrorRate:histogram
field count 2
field mean 0
field stddev 0
field min 0
field max 0
field sum 0
field sqrsum 0
attr recordingmode histogram
attr source bitErrorRate(packetSentToUpper)
attr title "Bit error rate"
bin	-inf	0
bin	-0.5	0
bin	-0.48	0
bin	-0.46	0
bin	-0.44	0
bin	-0.42	0
bin	-0.4	0
bin	-0.38	0
bin	-0.36	0
bin	-0.34	0
bin	-0.32	0
bin	-0.3	0
bin	-0.28	0
bin	-0.26	0
bin	-0.24	0
bin	-0.22	0
bin	-0.2	0
bin	-0.18	0
bin	-0.16	0
bin	-0.14	0
bin	-0.12	0
bin	-0.1	0
bin	-0.08	0
bin	-0.06	0
bin	-0.04	0
bin	-0.02	0
bin	0	2
bin	0.02	0
bin	0.04	0
bin	0.06	0
bin	0.08	0
bin	0.1	0
bin	0.12	0
bin	0.14	0
bin	0.16	0
bin	0.18	0
bin	0.2	0
bin	0.22	0
bin	0.24	0
bin	0.26	0
bin	0.28	0
bin	0.3	0
bin	0.32	0
bin	0.34	0
bin	0.36	0
bin	0.38	0
bin	0.4	0
bin	0.42	0
bin	0.44	0
bin	0.46	0
bin	0.48	0
bin	0.5	0
statistic LoRaNetworkTest.loRaNodes[0].LoRaNic.radio symbolErrorRate:histogram
field count 2
field mean 0
field stddev 0
field min 0
field max 0
field sum 0
field sqrsum 0
attr recordingmode histogram
attr source symbolErrorRate(packetSentToUpper)
attr title "Symbol error rate"
bin	-inf	0
bin	-0.5	0
bin	-0.48	0
bin	-0.46	0
bin	-0.44	0
bin	-0.42	0
bin	-0.4	0
bin	-0.38	0
bin	-0.36	0
bin	-0.34	0
bin	-0.32	0
bin	-0.3	0
bin	-0.28	0
bin	-0.26	0
bin	-0.24	0
bin	-0.22	0
bin	-0.2	0
bin	-0.18	0
bin	-0.16	0
bin	-0.14	0
bin	-0.12	0
bin	-0.1	0
bin	-0.08	0
bin	-0.06	0
bin	-0.04	0
bin	-0.02	0
bin	0	2
bin	0.02	0
bin	0.04	0
bin	0.06	0
bin	0.08	0
bin	0.1	0
bin	0.12	0
bin	0.14	0
bin	0.16	0
bin	0.18	0
bin	0.2	0
bin	0.22	0
bin	0.24	0
bin	0.26	0
bin	0.28	0
bin	0.3	0
bin	0.32	0
bin	0.34	0
bin	0.36	0
bin	0.38	0
bin	0.4	0
bin	0.42	0
bin	0.44	0
bin	0.46	0
bin	0.48	0
bin	0.5	0
par LoRaNetworkTest.loRaNodes[0].LoRaNic typename "\"flora.LoRa.LoRaNic\""
par LoRaNetworkTest.loRaNodes[0].LoRaNic displayStringTextFormat "\"%a (%i)\\n%m\""
par LoRaNetworkTest.loRaNodes[0].LoRaNic recordPcap false
par LoRaNetworkTest.loRaNodes[0].LoRaNic numPcapRecorders 0
par LoRaNetworkTest.loRaNodes[0].LoRaNic interfaceTableModule "\"LoRaNetworkTest.loRaNodes[0].interfaceTable\""
par LoRaNetworkTest.loRaNodes[0].LoRaNic energySourceModule "\"^.IdealEpEnergyStorage\""
par LoRaNetworkTest.loRaNodes[0].LoRaNic protocol "\"\""
scalar LoRaNetworkTest.loRaNodes[0].LoRaNic packetDropInterfaceDown:count 0
attr interpolationmode none
attr recordingmode count
attr source packetDropReasonIsInterfaceDown(packetDropped)
attr title "packet drops: interface down, count"
scalar LoRaNetworkTest.loRaNodes[0].LoRaNic packetDropInterfaceDown:sum(packetBytes) 0
attr interpolationmode none
attr recordingmode sum(packetBytes)
attr source packetDropReasonIsInterfaceDown(packetDropped)
attr title "packet drops: interface down, sum(packetBytes)"
scalar LoRaNetworkTest.loRaNodes[0].LoRaNic packetDropNoCarrier:count 0
attr interpolationmode none
attr recordingmode count
attr source packetDropReasonIsNoCarrier(packetDropped)
attr title "packet drops: no carrier, count"
scalar LoRaNetworkTest.loRaNodes[0].LoRaNic packetDropNoCarrier:sum(packetBytes) 0
attr interpolationmode none
attr recordingmode sum(packetBytes)
attr source packetDropReasonIsNoCarrier(packetDropped)
attr title "packet drops: no carrier, sum(packetBytes)"
par LoRaNetworkTest.loRaNodes[0].app[0] typename "\"flora.LoRaApp.SimpleLoRaApp\""
par LoRaNetworkTest.loRaNodes[0].app[0] numberOfPacketsToSend 0
par LoRaNetworkTest.loRaNodes[0].app[0] timeToFirstPacket exponential(1000s)
attr unit s
par LoRaNetworkTest.loRaNodes[0].app[0] timeToNextPacket exponential(1000s)
attr unit s
par LoRaNetworkTest.loRaNodes[0].app[0] initialLoRaTP 14dBm
attr unit dBm
par LoRaNetworkTest.loRaNodes[0].app[0] initialLoRaCF 8.68e+08Hz
attr unit Hz
par LoRaNetworkTest.loRaNodes[0].app[0] initialLoRaSF 9
par LoRaNetworkTest.loRaNodes[0].app[0] initialLoRaBW 125000Hz
attr unit Hz
par LoRaNetworkTest.loRaNodes[0].app[0] initialLoRaCR 4
par LoRaNetworkTest.loRaNodes[0].app[0] initialUseHeader true
par LoRaNetworkTest.loRaNodes[0].app[0] evaluateADRinNode true
par LoRaNetworkTest.loRaNodes[0].app[0] dataSize 10B
attr unit B
scalar LoRaNetworkTest.loRaNodes[0].app[0] positionX 300
scalar LoRaNetworkTest.loRaNodes[0].app[0] positionY 350
scalar LoRaNetworkTest.loRaNodes[0].app[0] finalTP 14
scalar LoRaNetworkTest.loRaNodes[0].app[0] finalSF 9
scalar LoRaNetworkTest.loRaNodes[0].app[0] sentPackets 70
scalar LoRaNetworkTest.loRaNodes[0].app[0] receivedADRCommands 2
scalar LoRaNetworkTest.loRaNodes[0].app[0] LoRa_AppPacketSent:count 70
attr recordingmode count
attr source LoRa_AppPacketSent
par LoRaNetworkTest.loRaNodes[0] typename "\"flora.LoraNode.LoRaNode\""
par LoRaNetworkTest.loRaNodes[0] numApps 1
par LoRaNetworkTest.loRaNodes[0] deploymentType "\"\""
par LoRaNetworkTest.loRaNodes[0] maxGatewayDistance 320
par LoRaNetworkTest.loRaNodes[0] gatewayX 320
par LoRaNetworkTest.loRaNodes[0] gatewayY 320
par LoRaNetworkTest.loRaNodes[1].interfaceTable typename "\"inet.networklayer.common.InterfaceTable\""
par LoRaNetworkTest.loRaNodes[1].interfaceTable displayAddresses false
par LoRaNetworkTest.loRaNodes[1].mobility typename "\"inet.mobility.static.StationaryMobility\""
par LoRaNetworkTest.loRaNodes[1].mobility subjectModule "\"^\""
par LoRaNetworkTest.loRaNodes[1].mobility coordinateSystemModule "\"\""
par LoRaNetworkTest.loRaNodes[1].mobility displayStringTextFormat "\"p: %p\\nv: %v\""
attr mutable ""
par LoRaNetworkTest.loRaNodes[1].mobility updateDisplayString true
par LoRaNetworkTest.loRaNodes[1].mobility constraintAreaMinX 0m
attr unit m
par LoRaNetworkTest.loRaNodes[1].mobility constraintAreaMinY 0m
attr unit m
par LoRaNetworkTest.loRaNodes[1].mobility constraintAreaMinZ 0m
attr unit m
par LoRaNetworkTest.loRaNodes[1].mobility constraintAreaMaxX 1000m
attr unit m
par LoRaNetworkTest.loRaNodes[1].mobility constraintAreaMaxY 1000m
attr unit m
par LoRaNetworkTest.loRaNodes[1].mobility constraintAreaMaxZ 0m
attr unit m
par LoRaNetworkTest.loRaNodes[1].mobility initialX 715.189m
attr unit m
par LoRaNetworkTest.loRaNodes[1].mobility initialY 844.266m
attr unit m
par LoRaNetworkTest.loRaNodes[1].mobility initialZ 0m
attr unit m
par LoRaNetworkTest.loRaNodes[1].mobility initialLatitude "nan deg"
attr unit deg
par LoRaNetworkTest.loRaNodes[1].mobility initialLongitude "nan deg"
attr unit deg
par LoRaNetworkTest.loRaNodes[1].mobility initialAltitude 0m
attr unit m
par LoRaNetworkTest.loRaNodes[1].mobility initialHeading 0deg
attr unit deg
par LoRaNetworkTest.loRaNodes[1].mobility initialElevation 0deg
attr unit deg
par LoRaNetworkTest.loRaNodes[1].mobility initialBank 0deg
attr unit deg
par LoRaNetworkTest.loRaNodes[1].mobility initFromDisplayString false
par LoRaNetworkTest.loRaNodes[1].mobility updateFromDisplayString true
par LoRaNetworkTest.loRaNodes[1].LoRaNic.radioIn.channel typename "\"ned.IdealChannel\""
par LoRaNetworkTest.loRaNodes[1].LoRaNic.mac.upperLayerOut.channel typename "\"ned.IdealChannel\""
par LoRaNetworkTest.loRaNodes[1].LoRaNic.upperLayerIn.channel typename "\"ned.IdealChannel\""
par LoRaNetworkTest.loRaNodes[1].LoRaNic.queue typename "\"inet.queueing.queue.DropTailQueue\""
par LoRaNetworkTest.loRaNodes[1].LoRaNic.queue displayStringTextFormat "\"contains %p pk (%l) pushed %u\\npulled %o removed %r dropped %d\""
par LoRaNetworkTest.loRaNodes[1].LoRaNic.queue packetCapacity -1
par LoRaNetworkTest.loRaNodes[1].LoRaNic.queue dataCapacity -1b
attr unit b
par LoRaNetworkTest.loRaNodes[1].LoRaNic.queue dropperClass "\"inet::queueing::PacketAtCollectionEndDropper\""
par LoRaNetworkTest.loRaNodes[1].LoRaNic.queue comparatorClass "\"\""
par LoRaNetworkTest.loRaNodes[1].LoRaNic.queue bufferModule "\"\""
scalar LoRaNetworkTest.loRaNodes[1].LoRaNic.queue queueLength:last 0
attr autoWarmupFilter false
attr interpolationmode sample-hold
attr recordingmode last
attr source "warmup(atomic(constant0(packetPushEnded) + count(packetPushStarted) - count(packetPulled) - count(packetRemoved) - count(packetDropped)))"
attr title "queue length, last"
attr unit pk
scalar LoRaNetworkTest.loRaNodes[1].LoRaNic.queue queueLength:max 0
attr autoWarmupFilter false
attr interpolationmode sample-hold
attr recordingmode max
attr source "warmup(atomic(constant0(packetPushEnded) + count(packetPushStarted) - count(packetPulled) - count(packetRemoved) - count(packetDropped)))"
attr title "queue length, max"
attr unit pk
scalar LoRaNetworkTest.loRaNodes[1].LoRaNic.queue queueLength:timeavg 0
attr autoWarmupFilter false
attr interpolationmode sample-hold
attr recordingmode timeavg
attr source "warmup(atomic(constant0(packetPushEnded) + count(packetPushStarted) - count(packetPulled) - count(packetRemoved) - count(packetDropped)))"
attr title "queue length, timeavg"
attr unit pk
scalar LoRaNetworkTest.loRaNodes[1].LoRaNic.queue queueBitLength:last 0
attr autoWarmupFilter false
attr interpolationmode sample-hold
attr recordingmode last
attr source "warmup(atomic(constant0(packetPushEnded) + sum(packetLength(packetPushStarted)) - sum(packetLength(packetPulled)) - sum(packetLength(packetRemoved)) - sum(packetLength(packetDropped))))"
attr title "queue bit length, last"
attr unit b
scalar LoRaNetworkTest.loRaNodes[1].LoRaNic.queue queueBitLength:max 0
attr autoWarmupFilter false
attr interpolationmode sample-hold
attr recordingmode max
attr source "warmup(atomic(constant0(packetPushEnded) + sum(packetLength(packetPushStarted)) - sum(packetLength(packetPulled)) - sum(packetLength(packetRemoved)) - sum(packetLength(packetDropped))))"
attr title "queue bit length, max"
attr unit b
scalar LoRaNetworkTest.loRaNodes[1].LoRaNic.queue queueBitLength:timeavg 0
attr autoWarmupFilter false
attr interpolationmode sample-hold
attr recordingmode timeavg
attr source "warmup(atomic(constant0(packetPushEnded) + sum(packetLength(packetPushStarted)) - sum(packetLength(packetPulled)) - sum(packetLength(packetRemoved)) - sum(packetLength(packetDropped))))"
attr title "queue bit length, timeavg"
attr unit b
statistic LoRaNetworkTest.loRaNodes[1].LoRaNic.queue queueingTime:histogram
field count 93
field mean 0
field stddev 0
field min 0
field max 0
field sum 0
field sqrsum 0
attr interpolationmode none
attr recordingmode histogram
attr source queueingTime(packetPulled)
attr title "queueing times"
attr unit s
bin	-inf	0
bin	-0.5	0
bin	-0.48	0
bin	-0.46	0
bin	-0.44	0
bin	-0.42	0
bin	-0.4	0
bin	-0.38	0
bin	-0.36	0
bin	-0.34	0
bin	-0.32	0
bin	-0.3	0
bin	-0.28	0
bin	-0.26	0
bin	-0.24	0
bin	-0.22	0
bin	-0.2	0
bin	-0.18	0
bin	-0.16	0
bin	-0.14	0
bin	-0.12	0
bin	-0.1	0
bin	-0.08	0
bin	-0.06	0
bin	-0.04	0
bin	-0.02	0
bin	0	93
bin	0.02	0
bin	0.04	0
bin	0.06	0
bin	0.08	0
bin	0.1	0
bin	0.12	0
bin	0.14	0
bin	0.16	0
bin	0.18	0
bin	0.2	0
bin	0.22	0
bin	0.24	0
bin	0.26	0
bin	0.28	0
bin	0.3	0
bin	0.32	0
bin	0.34	0
bin	0.36	0
bin	0.38	0
bin	0.4	0
bin	0.42	0
bin	0.44	0
bin	0.46	0
bin	0.48	0
bin	0.5	0
scalar LoRaNetworkTest.loRaNodes[1].LoRaNic.queue outgoingPackets:count 93
attr recordingmode count
attr source packetPulled
attr title "outgoing packets, count"
attr unit pk
scalar LoRaNetworkTest.loRaNodes[1].LoRaNic.queue outgoingPacketLengths:sum 7440
attr interpolationmode none
attr recordingmode sum
attr source packetLength(packetPulled)
attr title "outgoing packet lengths, sum"
attr unit b
statistic LoRaNetworkTest.loRaNodes[1].LoRaNic.queue outgoingPacketLengths:histogram
field count 93
field mean 80
field stddev 0
field min 80
field max 80
field sum 7440
field sqrsum 595200
attr interpolationmode none
attr recordingmode histogram
attr source packetLength(packetPulled)
attr title "outgoing packet lengths"
attr unit b
bin	-inf	0
bin	79	0
bin	80	93
bin	81	0
statistic LoRaNetworkTest.loRaNodes[1].LoRaNic.queue flowQueueingTime:histogram
field count 0
field mean -nan
field stddev -nan
field min -nan
field max -nan
field sum 0
field sqrsum 0
attr interpolationmode none
attr recordingmode histogram
attr source queueingTime(demuxFlow(packetPulled))
attr title "flow queueing times"
attr unit s
bin	-inf	0
bin	0	0
bin	1	0
scalar LoRaNetworkTest.loRaNodes[1].LoRaNic.queue incomingPackets:count 93
attr recordingmode count
attr source packetPushStarted
attr title "incoming packets, count"
attr unit pk
scalar LoRaNetworkTest.loRaNodes[1].LoRaNic.queue incomingPacketLengths:sum 7440
attr interpolationmode none
attr recordingmode sum
attr source packetLength(packetPushStarted)
attr title "incoming packet lengths, sum"
attr unit b
statistic LoRaNetworkTest.loRaNodes[1].LoRaNic.queue incomingPacketLengths:histogram
field count 93
field mean 80
field stddev 0
field min 80
field max 80
field sum 7440
field sqrsum 595200
attr interpolationmode none
attr recordingmode histogram
attr source packetLength(packetPushStarted)
attr title "incoming packet lengths"
attr unit b
bin	-inf	0
bin	79	0
bin	80	93
bin	81	0
scalar LoRaNetworkTest.loRaNodes[1].LoRaNic.queue droppedPacketsQueueOverflow:count 0
attr interpolationmode none
attr recordingmode count
attr source packetDropReasonIsQueueOverflow(packetDropped)
attr title "dropped packets: queue overflow, count"
attr unit pk
scalar LoRaNetworkTest.loRaNodes[1].LoRaNic.queue droppedPacketLengthsQueueOverflow:sum 0
attr interpolationmode none
attr recordingmode sum
attr source packetLength(packetDropReasonIsQueueOverflow(packetDropped))
attr title "dropped packet lengths: queue overflow, sum"
attr unit b
par LoRaNetworkTest.loRaNodes[1].LoRaNic.mac typename "\"flora.LoRa.LoRaMac\""
par LoRaNetworkTest.loRaNodes[1].LoRaNic.mac interfaceTableModule "\"LoRaNetworkTest.loRaNodes[1].interfaceTable\""
par LoRaNetworkTest.loRaNodes[1].LoRaNic.mac radioModule "\"^.radio\""
par LoRaNetworkTest.loRaNodes[1].LoRaNic.mac address "\"0A-AA-00-00-00-02\""
attr mutable ""
par LoRaNetworkTest.loRaNodes[1].LoRaNic.mac fcsMode "\"declared\""
attr enum declared,computed
par LoRaNetworkTest.loRaNodes[1].LoRaNic.mac useAck true
par LoRaNetworkTest.loRaNodes[1].LoRaNic.mac bitrate 250bps
attr unit bps
par LoRaNetworkTest.loRaNodes[1].LoRaNic.mac headerLength 17B
attr unit B
par LoRaNetworkTest.loRaNodes[1].LoRaNic.mac ackLength 14B
attr unit B
par LoRaNetworkTest.loRaNodes[1].LoRaNic.mac sifsTime 1e-05s
attr unit s
par LoRaNetworkTest.loRaNodes[1].LoRaNic.mac slotTime 2e-05s
attr unit s
par LoRaNetworkTest.loRaNodes[1].LoRaNic.mac difsTime 5e-05s
attr unit s
par LoRaNetworkTest.loRaNodes[1].LoRaNic.mac ackTimeout 0.44803s
attr unit s
par LoRaNetworkTest.loRaNodes[1].LoRaNic.mac mtu 1500
par LoRaNetworkTest.loRaNodes[1].LoRaNic.mac cwMin 31
par LoRaNetworkTest.loRaNodes[1].LoRaNic.mac cwMax 1023
par LoRaNetworkTest.loRaNodes[1].LoRaNic.mac cwMulticast 31
par LoRaNetworkTest.loRaNodes[1].LoRaNic.mac retryLimit 7
scalar LoRaNetworkTest.loRaNodes[1].LoRaNic.mac numRetry 0
scalar LoRaNetworkTest.loRaNodes[1].LoRaNic.mac numSentWithoutRetry 0
scalar LoRaNetworkTest.loRaNodes[1].LoRaNic.mac numGivenUp 0
scalar LoRaNetworkTest.loRaNodes[1].LoRaNic.mac numSent 93
scalar LoRaNetworkTest.loRaNodes[1].LoRaNic.mac numReceived 0
scalar LoRaNetworkTest.loRaNodes[1].LoRaNic.mac numSentBroadcast 0
scalar LoRaNetworkTest.loRaNodes[1].LoRaNic.mac numReceivedBroadcast 0
scalar LoRaNetworkTest.loRaNodes[1].LoRaNic.mac packetDropIncorrectlyReceived:count 0
attr interpolationmode none
attr recordingmode count
attr source packetDropReasonIsIncorrectlyReceived(packetDropped)
attr title "packet drop: incorrectly received, count"
scalar LoRaNetworkTest.loRaNodes[1].LoRaNic.mac packetDropIncorrectlyReceived:sum(packetBytes) 0
attr interpolationmode none
attr recordingmode sum(packetBytes)
attr source packetDropReasonIsIncorrectlyReceived(packetDropped)
attr title "packet drop: incorrectly received, sum(packetBytes)"
scalar LoRaNetworkTest.loRaNodes[1].LoRaNic.mac packetDropNotAddressedToUs:count 0
attr interpolationmode none
attr recordingmode count
attr source packetDropReasonIsNotAddressedToUs(packetDropped)
attr title "packet drop: not addressed to us, count"
scalar LoRaNetworkTest.loRaNodes[1].LoRaNic.mac packetDropNotAddressedToUs:sum(packetBytes) 0
attr interpolationmode none
attr recordingmode sum(packetBytes)
attr source packetDropReasonIsNotAddressedToUs(packetDropped)
attr title "packet drop: not addressed to us, sum(packetBytes)"
scalar LoRaNetworkTest.loRaNodes[1].LoRaNic.mac packetDropQueueOverflow:count 0
attr interpolationmode none
attr recordingmode count
attr source packetDropReasonIsQueueOverflow(packetDropped)
attr title "packet drop: queue overflow, count"
scalar LoRaNetworkTest.loRaNodes[1].LoRaNic.mac packetDropQueueOverflow:sum(packetBytes) 0
attr interpolationmode none
attr recordingmode sum(packetBytes)
attr source packetDropReasonIsQueueOverflow(packetDropped)
attr title "packet drop: queue overflow, sum(packetBytes)"
scalar LoRaNetworkTest.loRaNodes[1].LoRaNic.mac packetDropRetryLimitReached:count 0
attr interpolationmode none
attr recordingmode count
attr source packetDropReasonIsRetryLimitReached(packetDropped)
attr title "packet drop: retry limit reached, count"
scalar LoRaNetworkTest.loRaNodes[1].LoRaNic.mac packetDropRetryLimitReached:sum(packetBytes) 0
attr interpolationmode none
attr recordingmode sum(packetBytes)
attr source packetDropReasonIsRetryLimitReached(packetDropped)
attr title "packet drop: retry limit reached, sum(packetBytes)"
scalar LoRaNetworkTest.loRaNodes[1].LoRaNic.mac linkBroken:count 0
attr interpolationmode none
attr recordingmode count
attr source linkBroken
attr title "link break, count"
par LoRaNetworkTest.loRaNodes[1].LoRaNic.radio.antenna typename "\"inet.physicallayer.wireless.common.antenna.IsotropicAntenna\""
par LoRaNetworkTest.loRaNodes[1].LoRaNic.radio.antenna mobilityModule "\"^.^.^.mobility\""
par LoRaNetworkTest.loRaNodes[1].LoRaNic.radio.antenna numAntennas 1
par LoRaNetworkTest.loRaNodes[1].LoRaNic.radio.transmitter typename "\"flora.LoRaPhy.LoRaTransmitter\""
par LoRaNetworkTest.loRaNodes[1].LoRaNic.radio.transmitter preambleDuration 0.001s
attr unit s
par LoRaNetworkTest.loRaNodes[1].LoRaNic.radio.transmitter headerLength 0b
attr unit b
par LoRaNetworkTest.loRaNodes[1].LoRaNic.radio.transmitter bitrate 250000bps
attr unit bps
par LoRaNetworkTest.loRaNodes[1].LoRaNic.radio.transmitter power 0.025118W
attr unit W
par LoRaNetworkTest.loRaNodes[1].LoRaNic.radio.transmitter centerFrequency 8.68e+08Hz
attr unit Hz
par LoRaNetworkTest.loRaNodes[1].LoRaNic.radio.transmitter bandwidth 250000Hz
attr unit Hz
par LoRaNetworkTest.loRaNodes[1].LoRaNic.radio.transmitter modulation "\"LoRaModulation\""
scalar LoRaNetworkTest.loRaNodes[1].LoRaNic.radio.transmitter LoRaTransmissionCreated:count 93
attr recordingmode count
attr source LoRaTransmissionCreated
par LoRaNetworkTest.loRaNodes[1].LoRaNic.radio.receiver typename "\"flora.LoRaPhy.LoRaReceiver\""
par LoRaNetworkTest.loRaNodes[1].LoRaNic.radio.receiver snirThreshold -8dB
attr unit dB
par LoRaNetworkTest.loRaNodes[1].LoRaNic.radio.receiver snirThresholdMode "\"min\""
attr unit min,mean
par LoRaNetworkTest.loRaNodes[1].LoRaNic.radio.receiver energyDetection -110dBm
attr unit dBm
par LoRaNetworkTest.loRaNodes[1].LoRaNic.radio.receiver sensitivity -137dBm
attr unit dBm
par LoRaNetworkTest.loRaNodes[1].LoRaNic.radio.receiver centerFrequency 8.68e+08Hz
attr unit Hz
par LoRaNetworkTest.loRaNodes[1].LoRaNic.radio.receiver bandwidth 250000Hz
attr unit Hz
par LoRaNetworkTest.loRaNodes[1].LoRaNic.radio.receiver modulation "\"BPSK\""
par LoRaNetworkTest.loRaNodes[1].LoRaNic.radio.receiver alohaChannelModel false
scalar LoRaNetworkTest.loRaNodes[1].LoRaNic.radio.receiver numCollisions 0
scalar LoRaNetworkTest.loRaNodes[1].LoRaNic.radio.receiver rcvBelowSensitivity 3
scalar LoRaNetworkTest.loRaNodes[1].LoRaNic.radio.receiver LoRaReceptionCollision:count 0
attr recordingmode count
attr source LoRaReceptionCollision
par LoRaNetworkTest.loRaNodes[1].LoRaNic.radio.energyConsumer typename "\"flora.LoRaEnergyModules.LoRaEnergyConsumer\""
par LoRaNetworkTest.loRaNodes[1].LoRaNic.radio.energyConsumer energySourceModule "\"^.IdealEpEnergyStorage\""
par LoRaNetworkTest.loRaNodes[1].LoRaNic.radio.energyConsumer offPowerConsumption 0W
attr unit W
par LoRaNetworkTest.loRaNodes[1].LoRaNic.radio.energyConsumer sleepPowerConsumption 0.001W
attr unit W
par LoRaNetworkTest.loRaNodes[1].LoRaNic.radio.energyConsumer switchingPowerConsumption 0.001W
attr unit W
par LoRaNetworkTest.loRaNodes[1].LoRaNic.radio.energyConsumer receiverIdlePowerConsumption 0.002W
attr unit W
par LoRaNetworkTest.loRaNodes[1].LoRaNic.radio.energyConsumer receiverBusyPowerConsumption 0.005W
attr unit W
par LoRaNetworkTest.loRaNodes[1].LoRaNic.radio.energyConsumer receiverReceivingPowerConsumption 0.01W
attr unit W
par LoRaNetworkTest.loRaNodes[1].LoRaNic.radio.energyConsumer receiverReceivingPreamblePowerConsumption 0.01W
attr unit W
par LoRaNetworkTest.loRaNodes[1].LoRaNic.radio.energyConsumer receiverReceivingHeaderPowerConsumption 0.01W
attr unit W
par LoRaNetworkTest.loRaNodes[1].LoRaNic.radio.energyConsumer receiverReceivingDataPowerConsumption 0.01W
attr unit W
par LoRaNetworkTest.loRaNodes[1].LoRaNic.radio.energyConsumer transmitterIdlePowerConsumption 0.002W
attr unit W
par LoRaNetworkTest.loRaNodes[1].LoRaNic.radio.energyConsumer transmitterTransmittingPowerConsumption 0.1W
attr unit W
par LoRaNetworkTest.loRaNodes[1].LoRaNic.radio.energyConsumer transmitterTransmittingPreamblePowerConsumption 0.1W
attr unit W
par LoRaNetworkTest.loRaNodes[1].LoRaNic.radio.energyConsumer transmitterTransmittingHeaderPowerConsumption 0.1W
attr unit W
par LoRaNetworkTest.loRaNodes[1].LoRaNic.radio.energyConsumer transmitterTransmittingDataPowerConsumption 0.1W
attr unit W
par LoRaNetworkTest.loRaNodes[1].LoRaNic.radio.energyConsumer configFile "<root>...</root> at /home/victorcesc/Downloads/omnetpp-6.0.1/samples/flora/simulations//energyConsumptionParameters.xml:2"
scalar LoRaNetworkTest.loRaNodes[1].LoRaNic.radio.energyConsumer totalEnergyConsumed 17.515442105254
par LoRaNetworkTest.loRaNodes[1].LoRaNic.radio.IdealEpEnergyStorage typename "\"inet.power.storage.IdealEpEnergyStorage\""
scalar LoRaNetworkTest.loRaNodes[1].LoRaNic.radio.IdealEpEnergyStorage residualEnergyCapacity:last -17.515442105254
attr interpolationmode linear
attr recordingmode last
attr source residualEnergyCapacityChanged
attr title "Residual energy capacity, last"
par LoRaNetworkTest.loRaNodes[1].LoRaNic.radio typename "\"flora.LoRa.LoRaRadio\""
par LoRaNetworkTest.loRaNodes[1].LoRaNic.radio radioMediumModule "\"LoRaMedium\""
par LoRaNetworkTest.loRaNodes[1].LoRaNic.radio energySourceModule "\"^.IdealEpEnergyStorage\""
par LoRaNetworkTest.loRaNodes[1].LoRaNic.radio initialRadioMode "\"off\""
attr enum off,sleep,receiver,transmitter,transceiver
par LoRaNetworkTest.loRaNodes[1].LoRaNic.radio switchingTimes "\"ms 0 0 0 0 0 0 0 0 0 0 0 0 0 0 0 0 0 0 0 0 0 0 0 0 0\""
par LoRaNetworkTest.loRaNodes[1].LoRaNic.radio sendRawBytes false
par LoRaNetworkTest.loRaNodes[1].LoRaNic.radio separateTransmissionParts false
par LoRaNetworkTest.loRaNodes[1].LoRaNic.radio separateReceptionParts false
par LoRaNetworkTest.loRaNodes[1].LoRaNic.radio displayCommunicationRange false
par LoRaNetworkTest.loRaNodes[1].LoRaNic.radio displayInterferenceRange false
par LoRaNetworkTest.loRaNodes[1].LoRaNic.radio centerFrequency 8.68e+08Hz
attr unit Hz
par LoRaNetworkTest.loRaNodes[1].LoRaNic.radio bandwidth 250000Hz
attr unit Hz
par LoRaNetworkTest.loRaNodes[1].LoRaNic.radio iAmGateway false
scalar LoRaNetworkTest.loRaNodes[1].LoRaNic.radio radioMode:count 572
attr interpolationmode sample-hold
attr recordingmode count
attr source radioModeChanged
attr title "Radio mode, count"
scalar LoRaNetworkTest.loRaNodes[1].LoRaNic.radio receptionState:count 388
attr interpolationmode sample-hold
attr recordingmode count
attr source receptionStateChanged
attr title "Radio reception state, count"
scalar LoRaNetworkTest.loRaNodes[1].LoRaNic.radio transmissionState:count 372
attr interpolationmode sample-hold
attr recordingmode count
attr source transmissionStateChanged
attr title "Radio transmission state, count"
statistic LoRaNetworkTest.loRaNodes[1].LoRaNic.radio minSnir:histogram
field count 1
field mean 3.9966499185974
field stddev -nan
field min 3.9966499185974
field max 3.9966499185974
field sum 3.9966499185974
field sqrsum 15.973210571825
attr recordingmode histogram
attr source minimumSnir(packetSentToUpper)
attr title "Min SNIR"
bin	-inf	0
bin	3.48	0
bin	3.5	0
bin	3.52	0
bin	3.54	0
bin	3.56	0
bin	3.58	0
bin	3.6	0
bin	3.62	0
bin	3.64	0
bin	3.66	0
bin	3.68	0
bin	3.7	0
bin	3.72	0
bin	3.74	0
bin	3.76	0
bin	3.78	0
bin	3.8	0
bin	3.82	0
bin	3.84	0
bin	3.86	0
bin	3.88	0
bin	3.9	0
bin	3.92	0
bin	3.94	0
bin	3.96	0
bin	3.98	1
bin	4	0
bin	4.02	0
bin	4.04	0
bin	4.06	0
bin	4.08	0
bin	4.1	0
bin	4.12	0
bin	4.14	0
bin	4.16	0
bin	4.18	0
bin	4.2	0
bin	4.22	0
bin	4.24	0
bin	4.26	0
bin	4.28	0
bin	4.3	0
bin	4.32	0
bin	4.34	0
bin	4.36	0
bin	4.38	0
bin	4.4	0
bin	4.42	0
bin	4.44	0
bin	4.46	0
bin	4.48	0
bin	4.5	0
statistic LoRaNetworkTest.loRaNodes[1].LoRaNic.radio packetErrorRate:histogram
field count 1
field mean 0
field stddev -nan
field min 0
field max 0
field sum 0
field sqrsum 0
attr recordingmode histogram
attr source packetErrorRate(packetSentToUpper)
attr title "Packet error rate"
bin	-inf	0
bin	-0.5	0
bin	-0.48	0
bin	-0.46	0
bin	-0.44	0
bin	-0.42	0
bin	-0.4	0
bin	-0.38	0
bin	-0.36	0
bin	-0.34	0
bin	-0.32	0
bin	-0.3	0
bin	-0.28	0
bin	-0.26	0
bin	-0.24	0
bin	-0.22	0
bin	-0.2	0
bin	-0.18	0
bin	-0.16	0
bin	-0.14	0
bin	-0.12	0
bin	-0.1	0
bin	-0.08	0
bin	-0.06	0
bin	-0.04	0
bin	-0.02	0
bin	0	1
bin	0.02	0
bin	0.04	0
bin	0.06	0
bin	0.08	0
bin	0.1	0
bin	0.12	0
bin	0.14	0
bin	0.16	0
bin	0.18	0
bin	0.2	0
bin	0.22	0
bin	0.24	0
bin	0.26	0
bin	0.28	0
bin	0.3	0
bin	0.32	0
bin	0.34	0
bin	0.36	0
bin	0.38	0
bin	0.4	0
bin	0.42	0
bin	0.44	0
bin	0.46	0
bin	0.48	0
bin	0.5	0
statistic LoRaNetworkTest.loRaNodes[1].LoRaNic.radio bitErrorRate:histogram
field count 1
field mean 0
field stddev -nan
field min 0
field max 0
field sum 0
field sqrsum 0
attr recordingmode histogram
attr source bitErrorRate(packetSentToUpper)
attr title "Bit error rate"
bin	-inf	0
bin	-0.5	0
bin	-0.48	0
bin	-0.46	0
bin	-0.44	0
bin	-0.42	0
bin	-0.4	0
bin	-0.38	0
bin	-0.36	0
bin	-0.34	0
bin	-0.32	0
bin	-0.3	0
bin	-0.28	0
bin	-0.26	0
bin	-0.24	0
bin	-0.22	0
bin	-0.2	0
bin	-0.18	0
bin	-0.16	0
bin	-0.14	0
bin	-0.12	0
bin	-0.1	0
bin	-0.08	0
bin	-0.06	0
bin	-0.04	0
bin	-0.02	0
bin	0	1
bin	0.02	0
bin	0.04	0
bin	0.06	0
bin	0.08	0
bin	0.1	0
bin	0.12	0
bin	0.14	0
bin	0.16	0
bin	0.18	0
bin	0.2	0
bin	0.22	0
bin	0.24	0
bin	0.26	0
bin	0.28	0
bin	0.3	0
bin	0.32	0
bin	0.34	0
bin	0.36	0
bin	0.38	0
bin	0.4	0
bin	0.42	0
bin	0.44	0
bin	0.46	0
bin	0.48	0
bin	0.5	0
statistic LoRaNetworkTest.loRaNodes[1].LoRaNic.radio symbolErrorRate:histogram
field count 1
field mean 0
field stddev -nan
field min 0
field max 0
field sum 0
field sqrsum 0
attr recordingmode histogram
attr source symbolErrorRate(packetSentToUpper)
attr title "Symbol error rate"
bin	-inf	0
bin	-0.5	0
bin	-0.48	0
bin	-0.46	0
bin	-0.44	0
bin	-0.42	0
bin	-0.4	0
bin	-0.38	0
bin	-0.36	0
bin	-0.34	0
bin	-0.32	0
bin	-0.3	0
bin	-0.28	0
bin	-0.26	0
bin	-0.24	0
bin	-0.22	0
bin	-0.2	0
bin	-0.18	0
bin	-0.16	0
bin	-0.14	0
bin	-0.12	0
bin	-0.1	0
bin	-0.08	0
bin	-0.06	0
bin	-0.04	0
bin	-0.02	0
bin	0	1
bin	0.02	0
bin	0.04	0
bin	0.06	0
bin	0.08	0
bin	0.1	0
bin	0.12	0
bin	0.14	0
bin	0.16	0
bin	0.18	0
bin	0.2	0
bin	0.22	0
bin	0.24	0
bin	0.26	0
bin	0.28	0
bin	0.3	0
bin	0.32	0
bin	0.34	0
bin	0.36	0
bin	0.38	0
bin	0.4	0
bin	0.42	0
bin	0.44	0
bin	0.46	0
bin	0.48	0
bin	0.5	0
par LoRaNetworkTest.loRaNodes[1].LoRaNic typename "\"flora.LoRa.LoRaNic\""
par LoRaNetworkTest.loRaNodes[1].LoRaNic displayStringTextFormat "\"%a (%i)\\n%m\""
par LoRaNetworkTest.loRaNodes[1].LoRaNic recordPcap false
par LoRaNetworkTest.loRaNodes[1].LoRaNic numPcapRecorders 0
par LoRaNetworkTest.loRaNodes[1].LoRaNic interfaceTableModule "\"LoRaNetworkTest.loRaNodes[1].interfaceTable\""
par LoRaNetworkTest.loRaNodes[1].LoRaNic energySourceModule "\"^.IdealEpEnergyStorage\""
par LoRaNetworkTest.loRaNodes[1].LoRaNic protocol "\"\""
scalar LoRaNetworkTest.loRaNodes[1].LoRaNic packetDropInterfaceDown:count 0
attr interpolationmode none
attr recordingmode count
attr source packetDropReasonIsInterfaceDown(packetDropped)
attr title "packet drops: interface down, count"
scalar LoRaNetworkTest.loRaNodes[1].LoRaNic packetDropInterfaceDown:sum(packetBytes) 0
attr interpolationmode none
attr recordingmode sum(packetBytes)
attr source packetDropReasonIsInterfaceDown(packetDropped)
attr title "packet drops: interface down, sum(packetBytes)"
scalar LoRaNetworkTest.loRaNodes[1].LoRaNic packetDropNoCarrier:count 0
attr interpolationmode none
attr recordingmode count
attr source packetDropReasonIsNoCarrier(packetDropped)
attr title "packet drops: no carrier, count"
scalar LoRaNetworkTest.loRaNodes[1].LoRaNic packetDropNoCarrier:sum(packetBytes) 0
attr interpolationmode none
attr recordingmode sum(packetBytes)
attr source packetDropReasonIsNoCarrier(packetDropped)
attr title "packet drops: no carrier, sum(packetBytes)"
par LoRaNetworkTest.loRaNodes[1].app[0] typename "\"flora.LoRaApp.SimpleLoRaApp\""
par LoRaNetworkTest.loRaNodes[1].app[0] numberOfPacketsToSend 0
par LoRaNetworkTest.loRaNodes[1].app[0] timeToFirstPacket exponential(1000s)
attr unit s
par LoRaNetworkTest.loRaNodes[1].app[0] timeToNextPacket exponential(1000s)
attr unit s
par LoRaNetworkTest.loRaNodes[1].app[0] initialLoRaTP 14dBm
attr unit dBm
par LoRaNetworkTest.loRaNodes[1].app[0] initialLoRaCF 8.68e+08Hz
attr unit Hz
par LoRaNetworkTest.loRaNodes[1].app[0] initialLoRaSF 11
par LoRaNetworkTest.loRaNodes[1].app[0] initialLoRaBW 125000Hz
attr unit Hz
par LoRaNetworkTest.loRaNodes[1].app[0] initialLoRaCR 4
par LoRaNetworkTest.loRaNodes[1].app[0] initialUseHeader true
par LoRaNetworkTest.loRaNodes[1].app[0] evaluateADRinNode true
par LoRaNetworkTest.loRaNodes[1].app[0] dataSize 10B
attr unit B
scalar LoRaNetworkTest.loRaNodes[1].app[0] positionX 715.18936497159
scalar LoRaNetworkTest.loRaNodes[1].app[0] positionY 844.26574409008
scalar LoRaNetworkTest.loRaNodes[1].app[0] finalTP 14
scalar LoRaNetworkTest.loRaNodes[1].app[0] finalSF 11
scalar LoRaNetworkTest.loRaNodes[1].app[0] sentPackets 93
scalar LoRaNetworkTest.loRaNodes[1].app[0] receivedADRCommands 0
scalar LoRaNetworkTest.loRaNodes[1].app[0] LoRa_AppPacketSent:count 93
attr recordingmode count
attr source LoRa_AppPacketSent
par LoRaNetworkTest.loRaNodes[1] typename "\"flora.LoraNode.LoRaNode\""
par LoRaNetworkTest.loRaNodes[1] numApps 1
par LoRaNetworkTest.loRaNodes[1] deploymentType "\"\""
par LoRaNetworkTest.loRaNodes[1] maxGatewayDistance 320
par LoRaNetworkTest.loRaNodes[1] gatewayX 320
par LoRaNetworkTest.loRaNodes[1] gatewayY 320
par LoRaNetworkTest.loRaNodes[2].interfaceTable typename "\"inet.networklayer.common.InterfaceTable\""
par LoRaNetworkTest.loRaNodes[2].interfaceTable displayAddresses false
par LoRaNetworkTest.loRaNodes[2].mobility typename "\"inet.mobility.static.StationaryMobility\""
par LoRaNetworkTest.loRaNodes[2].mobility subjectModule "\"^\""
par LoRaNetworkTest.loRaNodes[2].mobility coordinateSystemModule "\"\""
par LoRaNetworkTest.loRaNodes[2].mobility displayStringTextFormat "\"p: %p\\nv: %v\""
attr mutable ""
par LoRaNetworkTest.loRaNodes[2].mobility updateDisplayString true
par LoRaNetworkTest.loRaNodes[2].mobility constraintAreaMinX 0m
attr unit m
par LoRaNetworkTest.loRaNodes[2].mobility constraintAreaMinY 0m
attr unit m
par LoRaNetworkTest.loRaNodes[2].mobility constraintAreaMinZ 0m
attr unit m
par LoRaNetworkTest.loRaNodes[2].mobility constraintAreaMaxX 1000m
attr unit m
par LoRaNetworkTest.loRaNodes[2].mobility constraintAreaMaxY 1000m
attr unit m
par LoRaNetworkTest.loRaNodes[2].mobility constraintAreaMaxZ 0m
attr unit m
par LoRaNetworkTest.loRaNodes[2].mobility initialX 544.883m
attr unit m
par LoRaNetworkTest.loRaNodes[2].mobility initialY 847.252m
attr unit m
par LoRaNetworkTest.loRaNodes[2].mobility initialZ 0m
attr unit m
par LoRaNetworkTest.loRaNodes[2].mobility initialLatitude "nan deg"
attr unit deg
par LoRaNetworkTest.loRaNodes[2].mobility initialLongitude "nan deg"
attr unit deg
par LoRaNetworkTest.loRaNodes[2].mobility initialAltitude 0m
attr unit m
par LoRaNetworkTest.loRaNodes[2].mobility initialHeading 0deg
attr unit deg
par LoRaNetworkTest.loRaNodes[2].mobility initialElevation 0deg
attr unit deg
par LoRaNetworkTest.loRaNodes[2].mobility initialBank 0deg
attr unit deg
par LoRaNetworkTest.loRaNodes[2].mobility initFromDisplayString false
par LoRaNetworkTest.loRaNodes[2].mobility updateFromDisplayString true
par LoRaNetworkTest.loRaNodes[2].LoRaNic.radioIn.channel typename "\"ned.IdealChannel\""
par LoRaNetworkTest.loRaNodes[2].LoRaNic.mac.upperLayerOut.channel typename "\"ned.IdealChannel\""
par LoRaNetworkTest.loRaNodes[2].LoRaNic.upperLayerIn.channel typename "\"ned.IdealChannel\""
par LoRaNetworkTest.loRaNodes[2].LoRaNic.queue typename "\"inet.queueing.queue.DropTailQueue\""
par LoRaNetworkTest.loRaNodes[2].LoRaNic.queue displayStringTextFormat "\"contains %p pk (%l) pushed %u\\npulled %o removed %r dropped %d\""
par LoRaNetworkTest.loRaNodes[2].LoRaNic.queue packetCapacity -1
par LoRaNetworkTest.loRaNodes[2].LoRaNic.queue dataCapacity -1b
attr unit b
par LoRaNetworkTest.loRaNodes[2].LoRaNic.queue dropperClass "\"inet::queueing::PacketAtCollectionEndDropper\""
par LoRaNetworkTest.loRaNodes[2].LoRaNic.queue comparatorClass "\"\""
par LoRaNetworkTest.loRaNodes[2].LoRaNic.queue bufferModule "\"\""
scalar LoRaNetworkTest.loRaNodes[2].LoRaNic.queue queueLength:last 0
attr autoWarmupFilter false
attr interpolationmode sample-hold
attr recordingmode last
attr source "warmup(atomic(constant0(packetPushEnded) + count(packetPushStarted) - count(packetPulled) - count(packetRemoved) - count(packetDropped)))"
attr title "queue length, last"
attr unit pk
scalar LoRaNetworkTest.loRaNodes[2].LoRaNic.queue queueLength:max 0
attr autoWarmupFilter false
attr interpolationmode sample-hold
attr recordingmode max
attr source "warmup(atomic(constant0(packetPushEnded) + count(packetPushStarted) - count(packetPulled) - count(packetRemoved) - count(packetDropped)))"
attr title "queue length, max"
attr unit pk
scalar LoRaNetworkTest.loRaNodes[2].LoRaNic.queue queueLength:timeavg 0
attr autoWarmupFilter false
attr interpolationmode sample-hold
attr recordingmode timeavg
attr source "warmup(atomic(constant0(packetPushEnded) + count(packetPushStarted) - count(packetPulled) - count(packetRemoved) - count(packetDropped)))"
attr title "queue length, timeavg"
attr unit pk
scalar LoRaNetworkTest.loRaNodes[2].LoRaNic.queue queueBitLength:last 0
attr autoWarmupFilter false
attr interpolationmode sample-hold
attr recordingmode last
attr source "warmup(atomic(constant0(packetPushEnded) + sum(packetLength(packetPushStarted)) - sum(packetLength(packetPulled)) - sum(packetLength(packetRemoved)) - sum(packetLength(packetDropped))))"
attr title "queue bit length, last"
attr unit b
scalar LoRaNetworkTest.loRaNodes[2].LoRaNic.queue queueBitLength:max 0
attr autoWarmupFilter false
attr interpolationmode sample-hold
attr recordingmode max
attr source "warmup(atomic(constant0(packetPushEnded) + sum(packetLength(packetPushStarted)) - sum(packetLength(packetPulled)) - sum(packetLength(packetRemoved)) - sum(packetLength(packetDropped))))"
attr title "queue bit length, max"
attr unit b
scalar LoRaNetworkTest.loRaNodes[2].LoRaNic.queue queueBitLength:timeavg 0
attr autoWarmupFilter false
attr interpolationmode sample-hold
attr recordingmode timeavg
attr source "warmup(atomic(constant0(packetPushEnded) + sum(packetLength(packetPushStarted)) - sum(packetLength(packetPulled)) - sum(packetLength(packetRemoved)) - sum(packetLength(packetDropped))))"
attr title "queue bit length, timeavg"
attr unit b
statistic LoRaNetworkTest.loRaNodes[2].LoRaNic.queue queueingTime:histogram
field count 79
field mean 0
field stddev 0
field min 0
field max 0
field sum 0
field sqrsum 0
attr interpolationmode none
attr recordingmode histogram
attr source queueingTime(packetPulled)
attr title "queueing times"
attr unit s
bin	-inf	0
bin	-0.5	0
bin	-0.48	0
bin	-0.46	0
bin	-0.44	0
bin	-0.42	0
bin	-0.4	0
bin	-0.38	0
bin	-0.36	0
bin	-0.34	0
bin	-0.32	0
bin	-0.3	0
bin	-0.28	0
bin	-0.26	0
bin	-0.24	0
bin	-0.22	0
bin	-0.2	0
bin	-0.18	0
bin	-0.16	0
bin	-0.14	0
bin	-0.12	0
bin	-0.1	0
bin	-0.08	0
bin	-0.06	0
bin	-0.04	0
bin	-0.02	0
bin	0	79
bin	0.02	0
bin	0.04	0
bin	0.06	0
bin	0.08	0
bin	0.1	0
bin	0.12	0
bin	0.14	0
bin	0.16	0
bin	0.18	0
bin	0.2	0
bin	0.22	0
bin	0.24	0
bin	0.26	0
bin	0.28	0
bin	0.3	0
bin	0.32	0
bin	0.34	0
bin	0.36	0
bin	0.38	0
bin	0.4	0
bin	0.42	0
bin	0.44	0
bin	0.46	0
bin	0.48	0
bin	0.5	0
scalar LoRaNetworkTest.loRaNodes[2].LoRaNic.queue outgoingPackets:count 79
attr recordingmode count
attr source packetPulled
attr title "outgoing packets, count"
attr unit pk
scalar LoRaNetworkTest.loRaNodes[2].LoRaNic.queue outgoingPacketLengths:sum 6320
attr interpolationmode none
attr recordingmode sum
attr source packetLength(packetPulled)
attr title "outgoing packet lengths, sum"
attr unit b
statistic LoRaNetworkTest.loRaNodes[2].LoRaNic.queue outgoingPacketLengths:histogram
field count 79
field mean 80
field stddev 0
field min 80
field max 80
field sum 6320
field sqrsum 505600
attr interpolationmode none
attr recordingmode histogram
attr source packetLength(packetPulled)
attr title "outgoing packet lengths"
attr unit b
bin	-inf	0
bin	79	0
bin	80	79
bin	81	0
statistic LoRaNetworkTest.loRaNodes[2].LoRaNic.queue flowQueueingTime:histogram
field count 0
field mean -nan
field stddev -nan
field min -nan
field max -nan
field sum 0
field sqrsum 0
attr interpolationmode none
attr recordingmode histogram
attr source queueingTime(demuxFlow(packetPulled))
attr title "flow queueing times"
attr unit s
bin	-inf	0
bin	0	0
bin	1	0
scalar LoRaNetworkTest.loRaNodes[2].LoRaNic.queue incomingPackets:count 79
attr recordingmode count
attr source packetPushStarted
attr title "incoming packets, count"
attr unit pk
scalar LoRaNetworkTest.loRaNodes[2].LoRaNic.queue incomingPacketLengths:sum 6320
attr interpolationmode none
attr recordingmode sum
attr source packetLength(packetPushStarted)
attr title "incoming packet lengths, sum"
attr unit b
statistic LoRaNetworkTest.loRaNodes[2].LoRaNic.queue incomingPacketLengths:histogram
field count 79
field mean 80
field stddev 0
field min 80
field max 80
field sum 6320
field sqrsum 505600
attr interpolationmode none
attr recordingmode histogram
attr source packetLength(packetPushStarted)
attr title "incoming packet lengths"
attr unit b
bin	-inf	0
bin	79	0
bin	80	79
bin	81	0
scalar LoRaNetworkTest.loRaNodes[2].LoRaNic.queue droppedPacketsQueueOverflow:count 0
attr interpolationmode none
attr recordingmode count
attr source packetDropReasonIsQueueOverflow(packetDropped)
attr title "dropped packets: queue overflow, count"
attr unit pk
scalar LoRaNetworkTest.loRaNodes[2].LoRaNic.queue droppedPacketLengthsQueueOverflow:sum 0
attr interpolationmode none
attr recordingmode sum
attr source packetLength(packetDropReasonIsQueueOverflow(packetDropped))
attr title "dropped packet lengths: queue overflow, sum"
attr unit b
par LoRaNetworkTest.loRaNodes[2].LoRaNic.mac typename "\"flora.LoRa.LoRaMac\""
par LoRaNetworkTest.loRaNodes[2].LoRaNic.mac interfaceTableModule "\"LoRaNetworkTest.loRaNodes[2].interfaceTable\""
par LoRaNetworkTest.loRaNodes[2].LoRaNic.mac radioModule "\"^.radio\""
par LoRaNetworkTest.loRaNodes[2].LoRaNic.mac address "\"0A-AA-00-00-00-03\""
attr mutable ""
par LoRaNetworkTest.loRaNodes[2].LoRaNic.mac fcsMode "\"declared\""
attr enum declared,computed
par LoRaNetworkTest.loRaNodes[2].LoRaNic.mac useAck true
par LoRaNetworkTest.loRaNodes[2].LoRaNic.mac bitrate 250bps
attr unit bps
par LoRaNetworkTest.loRaNodes[2].LoRaNic.mac headerLength 17B
attr unit B
par LoRaNetworkTest.loRaNodes[2].LoRaNic.mac ackLength 14B
attr unit B
par LoRaNetworkTest.loRaNodes[2].LoRaNic.mac sifsTime 1e-05s
attr unit s
par LoRaNetworkTest.loRaNodes[2].LoRaNic.mac slotTime 2e-05s
attr unit s
par LoRaNetworkTest.loRaNodes[2].LoRaNic.mac difsTime 5e-05s
attr unit s
par LoRaNetworkTest.loRaNodes[2].LoRaNic.mac ackTimeout 0.44803s
attr unit s
par LoRaNetworkTest.loRaNodes[2].LoRaNic.mac mtu 1500
par LoRaNetworkTest.loRaNodes[2].LoRaNic.mac cwMin 31
par LoRaNetworkTest.loRaNodes[2].LoRaNic.mac cwMax 1023
par LoRaNetworkTest.loRaNodes[2].LoRaNic.mac cwMulticast 31
par LoRaNetworkTest.loRaNodes[2].LoRaNic.mac retryLimit 7
scalar LoRaNetworkTest.loRaNodes[2].LoRaNic.mac numRetry 0
scalar LoRaNetworkTest.loRaNodes[2].LoRaNic.mac numSentWithoutRetry 0
scalar LoRaNetworkTest.loRaNodes[2].LoRaNic.mac numGivenUp 0
scalar LoRaNetworkTest.loRaNodes[2].LoRaNic.mac numSent 79
scalar LoRaNetworkTest.loRaNodes[2].LoRaNic.mac numReceived 0
scalar LoRaNetworkTest.loRaNodes[2].LoRaNic.mac numSentBroadcast 0
scalar LoRaNetworkTest.loRaNodes[2].LoRaNic.mac numReceivedBroadcast 0
scalar LoRaNetworkTest.loRaNodes[2].LoRaNic.mac packetDropIncorrectlyReceived:count 0
attr interpolationmode none
attr recordingmode count
attr source packetDropReasonIsIncorrectlyReceived(packetDropped)
attr title "packet drop: incorrectly received, count"
scalar LoRaNetworkTest.loRaNodes[2].LoRaNic.mac packetDropIncorrectlyReceived:sum(packetBytes) 0
attr interpolationmode none
attr recordingmode sum(packetBytes)
attr source packetDropReasonIsIncorrectlyReceived(packetDropped)
attr title "packet drop: incorrectly received, sum(packetBytes)"
scalar LoRaNetworkTest.loRaNodes[2].LoRaNic.mac packetDropNotAddressedToUs:count 0
attr interpolationmode none
attr recordingmode count
attr source packetDropReasonIsNotAddressedToUs(packetDropped)
attr title "packet drop: not addressed to us, count"
scalar LoRaNetworkTest.loRaNodes[2].LoRaNic.mac packetDropNotAddressedToUs:sum(packetBytes) 0
attr interpolationmode none
attr recordingmode sum(packetBytes)
attr source packetDropReasonIsNotAddressedToUs(packetDropped)
attr title "packet drop: not addressed to us, sum(packetBytes)"
scalar LoRaNetworkTest.loRaNodes[2].LoRaNic.mac packetDropQueueOverflow:count 0
attr interpolationmode none
attr recordingmode count
attr source packetDropReasonIsQueueOverflow(packetDropped)
attr title "packet drop: queue overflow, count"
scalar LoRaNetworkTest.loRaNodes[2].LoRaNic.mac packetDropQueueOverflow:sum(packetBytes) 0
attr interpolationmode none
attr recordingmode sum(packetBytes)
attr source packetDropReasonIsQueueOverflow(packetDropped)
attr title "packet drop: queue overflow, sum(packetBytes)"
scalar LoRaNetworkTest.loRaNodes[2].LoRaNic.mac packetDropRetryLimitReached:count 0
attr interpolationmode none
attr recordingmode count
attr source packetDropReasonIsRetryLimitReached(packetDropped)
attr title "packet drop: retry limit reached, count"
scalar LoRaNetworkTest.loRaNodes[2].LoRaNic.mac packetDropRetryLimitReached:sum(packetBytes) 0
attr interpolationmode none
attr recordingmode sum(packetBytes)
attr source packetDropReasonIsRetryLimitReached(packetDropped)
attr title "packet drop: retry limit reached, sum(packetBytes)"
scalar LoRaNetworkTest.loRaNodes[2].LoRaNic.mac linkBroken:count 0
attr interpolationmode none
attr recordingmode count
attr source linkBroken
attr title "link break, count"
par LoRaNetworkTest.loRaNodes[2].LoRaNic.radio.antenna typename "\"inet.physicallayer.wireless.common.antenna.IsotropicAntenna\""
par LoRaNetworkTest.loRaNodes[2].LoRaNic.radio.antenna mobilityModule "\"^.^.^.mobility\""
par LoRaNetworkTest.loRaNodes[2].LoRaNic.radio.antenna numAntennas 1
par LoRaNetworkTest.loRaNodes[2].LoRaNic.radio.transmitter typename "\"flora.LoRaPhy.LoRaTransmitter\""
par LoRaNetworkTest.loRaNodes[2].LoRaNic.radio.transmitter preambleDuration 0.001s
attr unit s
par LoRaNetworkTest.loRaNodes[2].LoRaNic.radio.transmitter headerLength 0b
attr unit b
par LoRaNetworkTest.loRaNodes[2].LoRaNic.radio.transmitter bitrate 250000bps
attr unit bps
par LoRaNetworkTest.loRaNodes[2].LoRaNic.radio.transmitter power 0.025118W
attr unit W
par LoRaNetworkTest.loRaNodes[2].LoRaNic.radio.transmitter centerFrequency 8.68e+08Hz
attr unit Hz
par LoRaNetworkTest.loRaNodes[2].LoRaNic.radio.transmitter bandwidth 250000Hz
attr unit Hz
par LoRaNetworkTest.loRaNodes[2].LoRaNic.radio.transmitter modulation "\"LoRaModulation\""
scalar LoRaNetworkTest.loRaNodes[2].LoRaNic.radio.transmitter LoRaTransmissionCreated:count 79
attr recordingmode count
attr source LoRaTransmissionCreated
par LoRaNetworkTest.loRaNodes[2].LoRaNic.radio.receiver typename "\"flora.LoRaPhy.LoRaReceiver\""
par LoRaNetworkTest.loRaNodes[2].LoRaNic.radio.receiver snirThreshold -8dB
attr unit dB
par LoRaNetworkTest.loRaNodes[2].LoRaNic.radio.receiver snirThresholdMode "\"min\""
attr unit min,mean
par LoRaNetworkTest.loRaNodes[2].LoRaNic.radio.receiver energyDetection -110dBm
attr unit dBm
par LoRaNetworkTest.loRaNodes[2].LoRaNic.radio.receiver sensitivity -137dBm
attr unit dBm
par LoRaNetworkTest.loRaNodes[2].LoRaNic.radio.receiver centerFrequency 8.68e+08Hz
attr unit Hz
par LoRaNetworkTest.loRaNodes[2].LoRaNic.radio.receiver bandwidth 250000Hz
attr unit Hz
par LoRaNetworkTest.loRaNodes[2].LoRaNic.radio.receiver modulation "\"BPSK\""
par LoRaNetworkTest.loRaNodes[2].LoRaNic.radio.receiver alohaChannelModel false
scalar LoRaNetworkTest.loRaNodes[2].LoRaNic.radio.receiver numCollisions 0
scalar LoRaNetworkTest.loRaNodes[2].LoRaNic.radio.receiver rcvBelowSensitivity 1
scalar LoRaNetworkTest.loRaNodes[2].LoRaNic.radio.receiver LoRaReceptionCollision:count 0
attr recordingmode count
attr source LoRaReceptionCollision
par LoRaNetworkTest.loRaNodes[2].LoRaNic.radio.energyConsumer typename "\"flora.LoRaEnergyModules.LoRaEnergyConsumer\""
par LoRaNetworkTest.loRaNodes[2].LoRaNic.radio.energyConsumer energySourceModule "\"^.IdealEpEnergyStorage\""
par LoRaNetworkTest.loRaNodes[2].LoRaNic.radio.energyConsumer offPowerConsumption 0W
attr unit W
par LoRaNetworkTest.loRaNodes[2].LoRaNic.radio.energyConsumer sleepPowerConsumption 0.001W
attr unit W
par LoRaNetworkTest.loRaNodes[2].LoRaNic.radio.energyConsumer switchingPowerConsumption 0.001W
attr unit W
par LoRaNetworkTest.loRaNodes[2].LoRaNic.radio.energyConsumer receiverIdlePowerConsumption 0.002W
attr unit W
par LoRaNetworkTest.loRaNodes[2].LoRaNic.radio.energyConsumer receiverBusyPowerConsumption 0.005W
attr unit W
par LoRaNetworkTest.loRaNodes[2].LoRaNic.radio.energyConsumer receiverReceivingPowerConsumption 0.01W
attr unit W
par LoRaNetworkTest.loRaNodes[2].LoRaNic.radio.energyConsumer receiverReceivingPreamblePowerConsumption 0.01W
attr unit W
par LoRaNetworkTest.loRaNodes[2].LoRaNic.radio.energyConsumer receiverReceivingHeaderPowerConsumption 0.01W
attr unit W
par LoRaNetworkTest.loRaNodes[2].LoRaNic.radio.energyConsumer receiverReceivingDataPowerConsumption 0.01W
attr unit W
par LoRaNetworkTest.loRaNodes[2].LoRaNic.radio.energyConsumer transmitterIdlePowerConsumption 0.002W
attr unit W
par LoRaNetworkTest.loRaNodes[2].LoRaNic.radio.energyConsumer transmitterTransmittingPowerConsumption 0.1W
attr unit W
par LoRaNetworkTest.loRaNodes[2].LoRaNic.radio.energyConsumer transmitterTransmittingPreamblePowerConsumption 0.1W
attr unit W
par LoRaNetworkTest.loRaNodes[2].LoRaNic.radio.energyConsumer transmitterTransmittingHeaderPowerConsumption 0.1W
attr unit W
par LoRaNetworkTest.loRaNodes[2].LoRaNic.radio.energyConsumer transmitterTransmittingDataPowerConsumption 0.1W
attr unit W
par LoRaNetworkTest.loRaNodes[2].LoRaNic.radio.energyConsumer configFile "<root>...</root> at /home/victorcesc/Downloads/omnetpp-6.0.1/samples/flora/simulations//energyConsumptionParameters.xml:2"
scalar LoRaNetworkTest.loRaNodes[2].LoRaNic.radio.energyConsumer totalEnergyConsumed 10.739185646894
par LoRaNetworkTest.loRaNodes[2].LoRaNic.radio.IdealEpEnergyStorage typename "\"inet.power.storage.IdealEpEnergyStorage\""
scalar LoRaNetworkTest.loRaNodes[2].LoRaNic.radio.IdealEpEnergyStorage residualEnergyCapacity:last -10.739185646894
attr interpolationmode linear
attr recordingmode last
attr source residualEnergyCapacityChanged
attr title "Residual energy capacity, last"
par LoRaNetworkTest.loRaNodes[2].LoRaNic.radio typename "\"flora.LoRa.LoRaRadio\""
par LoRaNetworkTest.loRaNodes[2].LoRaNic.radio radioMediumModule "\"LoRaMedium\""
par LoRaNetworkTest.loRaNodes[2].LoRaNic.radio energySourceModule "\"^.IdealEpEnergyStorage\""
par LoRaNetworkTest.loRaNodes[2].LoRaNic.radio initialRadioMode "\"off\""
attr enum off,sleep,receiver,transmitter,transceiver
par LoRaNetworkTest.loRaNodes[2].LoRaNic.radio switchingTimes "\"ms 0 0 0 0 0 0 0 0 0 0 0 0 0 0 0 0 0 0 0 0 0 0 0 0 0\""
par LoRaNetworkTest.loRaNodes[2].LoRaNic.radio sendRawBytes false
par LoRaNetworkTest.loRaNodes[2].LoRaNic.radio separateTransmissionParts false
par LoRaNetworkTest.loRaNodes[2].LoRaNic.radio separateReceptionParts false
par LoRaNetworkTest.loRaNodes[2].LoRaNic.radio displayCommunicationRange false
par LoRaNetworkTest.loRaNodes[2].LoRaNic.radio displayInterferenceRange false
par LoRaNetworkTest.loRaNodes[2].LoRaNic.radio centerFrequency 8.68e+08Hz
attr unit Hz
par LoRaNetworkTest.loRaNodes[2].LoRaNic.radio bandwidth 250000Hz
attr unit Hz
par LoRaNetworkTest.loRaNodes[2].LoRaNic.radio iAmGateway false
scalar LoRaNetworkTest.loRaNodes[2].LoRaNic.radio radioMode:count 482
attr interpolationmode sample-hold
attr recordingmode count
attr source radioModeChanged
attr title "Radio mode, count"
scalar LoRaNetworkTest.loRaNodes[2].LoRaNic.radio receptionState:count 324
attr interpolationmode sample-hold
attr recordingmode count
attr source receptionStateChanged
attr title "Radio reception state, count"
scalar LoRaNetworkTest.loRaNodes[2].LoRaNic.radio transmissionState:count 316
attr interpolationmode sample-hold
attr recordingmode count
attr source transmissionStateChanged
attr title "Radio transmission state, count"
statistic LoRaNetworkTest.loRaNodes[2].LoRaNic.radio minSnir:histogram
field count 1
field mean 12.970667044665
field stddev -nan
field min 12.970667044665
field max 12.970667044665
field sum 12.970667044665
field sqrsum 168.23820358355
attr recordingmode histogram
attr source minimumSnir(packetSentToUpper)
attr title "Min SNIR"
bin	-inf	0
bin	12.46	0
bin	12.48	0
bin	12.5	0
bin	12.52	0
bin	12.54	0
bin	12.56	0
bin	12.58	0
bin	12.6	0
bin	12.62	0
bin	12.64	0
bin	12.66	0
bin	12.68	0
bin	12.7	0
bin	12.72	0
bin	12.74	0
bin	12.76	0
bin	12.78	0
bin	12.8	0
bin	12.82	0
bin	12.84	0
bin	12.86	0
bin	12.88	0
bin	12.9	0
bin	12.92	0
bin	12.94	0
bin	12.96	1
bin	12.98	0
bin	13	0
bin	13.02	0
bin	13.04	0
bin	13.06	0
bin	13.08	0
bin	13.1	0
bin	13.12	0
bin	13.14	0
bin	13.16	0
bin	13.18	0
bin	13.2	0
bin	13.22	0
bin	13.24	0
bin	13.26	0
bin	13.28	0
bin	13.3	0
bin	13.32	0
bin	13.34	0
bin	13.36	0
bin	13.38	0
bin	13.4	0
bin	13.42	0
bin	13.44	0
bin	13.46	0
bin	13.48	0
statistic LoRaNetworkTest.loRaNodes[2].LoRaNic.radio packetErrorRate:histogram
field count 1
field mean 0
field stddev -nan
field min 0
field max 0
field sum 0
field sqrsum 0
attr recordingmode histogram
attr source packetErrorRate(packetSentToUpper)
attr title "Packet error rate"
bin	-inf	0
bin	-0.5	0
bin	-0.48	0
[...]
attr interpolationmode none
attr recordingmode sum
attr source packetLength(packetDropReasonIsQueueOverflow(packetDropped))
attr title "dropped packet lengths: queue overflow, sum"
attr unit b
par LoRaNetworkTest.nsRouter.eth[0].mac typename "\"inet.linklayer.ethernet.basic.EthernetMac\""
par LoRaNetworkTest.nsRouter.eth[0].mac interfaceTableModule "\"LoRaNetworkTest.nsRouter.interfaceTable\""
par LoRaNetworkTest.nsRouter.eth[0].mac displayStringTextFormat "\"rate: %b\\nsent: %s, rcvd: %r\\nqueue: %q, drop: %d\""
par LoRaNetworkTest.nsRouter.eth[0].mac sendRawBytes false
par LoRaNetworkTest.nsRouter.eth[0].mac promiscuous false
par LoRaNetworkTest.nsRouter.eth[0].mac duplexMode true
par LoRaNetworkTest.nsRouter.eth[0].mac mtu 1500B
attr unit B
par LoRaNetworkTest.nsRouter.eth[0].mac fcsMode "\"declared\""
attr enum declared,computed
par LoRaNetworkTest.nsRouter.eth[0].mac stopOperationExtraTime -1s
attr unit s
par LoRaNetworkTest.nsRouter.eth[0].mac stopOperationTimeout 2s
attr unit s
scalar LoRaNetworkTest.nsRouter.eth[0].mac "simulated time" 86400
scalar LoRaNetworkTest.nsRouter.eth[0].mac full-duplex 1
scalar LoRaNetworkTest.nsRouter.eth[0].mac "frames/sec sent" 0.0019675925925926
scalar LoRaNetworkTest.nsRouter.eth[0].mac "frames/sec rcvd" 0.00097222222222222
scalar LoRaNetworkTest.nsRouter.eth[0].mac "bits/sec sent" 1.0815740740741
scalar LoRaNetworkTest.nsRouter.eth[0].mac "bits/sec rcvd" 0.49777777777778
scalar LoRaNetworkTest.nsRouter.eth[0].mac "rx channel idle (%)" 99.999999944
scalar LoRaNetworkTest.nsRouter.eth[0].mac "rx channel utilization (%)" 5.6e-08
scalar LoRaNetworkTest.nsRouter.eth[0].mac rxPausePkUnits:count 0
attr interpolationmode none
attr recordingmode count
attr title "pause units received, count"
scalar LoRaNetworkTest.nsRouter.eth[0].mac rxPausePkUnits:sum 0
attr interpolationmode none
attr recordingmode sum
attr title "pause units received, sum"
scalar LoRaNetworkTest.nsRouter.eth[0].mac txPausePkUnits:count 0
attr interpolationmode none
attr recordingmode count
attr title "pause units sent, count"
scalar LoRaNetworkTest.nsRouter.eth[0].mac txPausePkUnits:sum 0
attr interpolationmode none
attr recordingmode sum
attr title "pause units sent, sum"
scalar LoRaNetworkTest.nsRouter.eth[0].mac rxPkOk:count 84
attr interpolationmode none
attr recordingmode count
attr source rxPkOk
attr title "packets received OK, count"
scalar LoRaNetworkTest.nsRouter.eth[0].mac rxPkOk:sum(packetBytes) 5376
attr interpolationmode none
attr recordingmode sum(packetBytes)
attr source rxPkOk
attr title "packets received OK, sum(packetBytes)"
scalar LoRaNetworkTest.nsRouter.eth[0].mac txPk:count 170
attr interpolationmode none
attr recordingmode count
attr source packetSentToLower
attr title "packets transmitted, count"
scalar LoRaNetworkTest.nsRouter.eth[0].mac txPk:sum(packetBytes) 11681
attr interpolationmode none
attr recordingmode sum(packetBytes)
attr source packetSentToLower
attr title "packets transmitted, sum(packetBytes)"
scalar LoRaNetworkTest.nsRouter.eth[0].mac packetReceivedFromUpper:count 170
attr interpolationmode none
attr recordingmode count
attr source packetReceivedFromUpper
attr title "packet bytes from higher layer, count"
scalar LoRaNetworkTest.nsRouter.eth[0].mac packetReceivedFromUpper:sum(packetBytes) 10223
attr interpolationmode none
attr recordingmode sum(packetBytes)
attr source packetReceivedFromUpper
attr title "packet bytes from higher layer, sum(packetBytes)"
scalar LoRaNetworkTest.nsRouter.eth[0].mac passedUpPk:count 84
attr interpolationmode none
attr recordingmode count
attr source packetSentToUpper
attr title "packets passed to higher layer, count"
scalar LoRaNetworkTest.nsRouter.eth[0].mac passedUpPk:sum(packetBytes) 5376
attr interpolationmode none
attr recordingmode sum(packetBytes)
attr source packetSentToUpper
attr title "packets passed to higher layer, sum(packetBytes)"
scalar LoRaNetworkTest.nsRouter.eth[0].mac packetDropIncorrectlyReceived:count 0
attr interpolationmode none
attr recordingmode count
attr source packetDropReasonIsIncorrectlyReceived(packetDropped)
attr title "packet drop: incorrectly received, count"
scalar LoRaNetworkTest.nsRouter.eth[0].mac packetDropIncorrectlyReceived:sum(packetBytes) 0
attr interpolationmode none
attr recordingmode sum(packetBytes)
attr source packetDropReasonIsIncorrectlyReceived(packetDropped)
attr title "packet drop: incorrectly received, sum(packetBytes)"
scalar LoRaNetworkTest.nsRouter.eth[0].mac packetDropInterfaceDown:count 0
attr interpolationmode none
attr recordingmode count
attr source packetDropReasonIsInterfaceDown(packetDropped)
attr title "packet drop: interface down, count"
scalar LoRaNetworkTest.nsRouter.eth[0].mac packetDropInterfaceDown:sum(packetBytes) 0
attr interpolationmode none
attr recordingmode sum(packetBytes)
attr source packetDropReasonIsInterfaceDown(packetDropped)
attr title "packet drop: interface down, sum(packetBytes)"
scalar LoRaNetworkTest.nsRouter.eth[0].mac packetDropNotAddressedToUs:count 0
attr interpolationmode none
attr recordingmode count
attr source packetDropReasonIsNotAddressedToUs(packetDropped)
attr title "packet drop: not addressed to us, count"
scalar LoRaNetworkTest.nsRouter.eth[0].mac packetDropNotAddressedToUs:sum(packetBytes) 0
attr interpolationmode none
attr recordingmode sum(packetBytes)
attr source packetDropReasonIsNotAddressedToUs(packetDropped)
attr title "packet drop: not addressed to us, sum(packetBytes)"
par LoRaNetworkTest.nsRouter.eth[0] typename "\"inet.linklayer.ethernet.EthernetInterface\""
par LoRaNetworkTest.nsRouter.eth[0] displayStringTextFormat "\"%a (%i)\\n%m\""
par LoRaNetworkTest.nsRouter.eth[0] recordPcap false
par LoRaNetworkTest.nsRouter.eth[0] numPcapRecorders 0
par LoRaNetworkTest.nsRouter.eth[0] interfaceTableModule "\"LoRaNetworkTest.nsRouter.interfaceTable\""
par LoRaNetworkTest.nsRouter.eth[0] protocol "\"ethernetmac\""
par LoRaNetworkTest.nsRouter.eth[0] address "\"0A-AA-00-00-00-0F\""
attr mutable ""
par LoRaNetworkTest.nsRouter.eth[0] duplexMode true
par LoRaNetworkTest.nsRouter.eth[0] csmacdSupport false
par LoRaNetworkTest.nsRouter.eth[0] bitrate 0bps
attr unit bps
par LoRaNetworkTest.nsRouter.eth[0] fcsMode "\"declared\""
attr enum declared,computed
scalar LoRaNetworkTest.nsRouter.eth[0] packetDropInterfaceDown:count 0
attr interpolationmode none
attr recordingmode count
attr source packetDropReasonIsInterfaceDown(packetDropped)
attr title "packet drops: interface down, count"
scalar LoRaNetworkTest.nsRouter.eth[0] packetDropInterfaceDown:sum(packetBytes) 0
attr interpolationmode none
attr recordingmode sum(packetBytes)
attr source packetDropReasonIsInterfaceDown(packetDropped)
attr title "packet drops: interface down, sum(packetBytes)"
scalar LoRaNetworkTest.nsRouter.eth[0] packetDropNoCarrier:count 0
attr interpolationmode none
attr recordingmode count
attr source packetDropReasonIsNoCarrier(packetDropped)
attr title "packet drops: no carrier, count"
scalar LoRaNetworkTest.nsRouter.eth[0] packetDropNoCarrier:sum(packetBytes) 0
attr interpolationmode none
attr recordingmode sum(packetBytes)
attr source packetDropReasonIsNoCarrier(packetDropped)
attr title "packet drops: no carrier, sum(packetBytes)"
par LoRaNetworkTest.nsRouter.ipv4.transportIn.channel typename "\"ned.IdealChannel\""
par LoRaNetworkTest.nsRouter.ipv4.up.out[0].channel typename "\"ned.IdealChannel\""
par LoRaNetworkTest.nsRouter.ipv4.lp.out[2].channel typename "\"ned.IdealChannel\""
par LoRaNetworkTest.nsRouter.ipv4.ifIn.channel typename "\"ned.IdealChannel\""
par LoRaNetworkTest.nsRouter.ipv4.configurator typename "\"inet.networklayer.configurator.ipv4.Ipv4NodeConfigurator\""
par LoRaNetworkTest.nsRouter.ipv4.configurator interfaceTableModule "\"LoRaNetworkTest.nsRouter.interfaceTable\""
par LoRaNetworkTest.nsRouter.ipv4.configurator routingTableModule "\"LoRaNetworkTest.nsRouter.ipv4.routingTable\""
par LoRaNetworkTest.nsRouter.ipv4.configurator networkConfiguratorModule "\"configurator\""
par LoRaNetworkTest.nsRouter.ipv4.configurator configureRoutingTable true
par LoRaNetworkTest.nsRouter.ipv4.routingTable typename "\"inet.networklayer.ipv4.Ipv4RoutingTable\""
par LoRaNetworkTest.nsRouter.ipv4.routingTable interfaceTableModule "\"LoRaNetworkTest.nsRouter.interfaceTable\""
par LoRaNetworkTest.nsRouter.ipv4.routingTable routerId "\"auto\""
par LoRaNetworkTest.nsRouter.ipv4.routingTable netmaskRoutes "\"*\""
par LoRaNetworkTest.nsRouter.ipv4.routingTable forwarding true
par LoRaNetworkTest.nsRouter.ipv4.routingTable multicastForwarding false
par LoRaNetworkTest.nsRouter.ipv4.routingTable useAdminDist false
par LoRaNetworkTest.nsRouter.ipv4.routingTable routingFile "\"\""
par LoRaNetworkTest.nsRouter.ipv4.natTable typename "\"inet.networklayer.ipv4.Ipv4NatTable\""
par LoRaNetworkTest.nsRouter.ipv4.natTable networkProtocolModule "\"^.ip\""
par LoRaNetworkTest.nsRouter.ipv4.natTable config "<config/> at content:1"
par LoRaNetworkTest.nsRouter.ipv4.up typename "\"inet.common.MessageDispatcher\""
par LoRaNetworkTest.nsRouter.ipv4.up displayStringTextFormat "\"processed %p pk (%l)\""
par LoRaNetworkTest.nsRouter.ipv4.up forwardServiceRegistration true
par LoRaNetworkTest.nsRouter.ipv4.up forwardProtocolRegistration true
par LoRaNetworkTest.nsRouter.ipv4.igmp typename "\"inet.networklayer.ipv4.Igmpv2\""
par LoRaNetworkTest.nsRouter.ipv4.igmp interfaceTableModule "\"LoRaNetworkTest.nsRouter.interfaceTable\""
par LoRaNetworkTest.nsRouter.ipv4.igmp routingTableModule "\"LoRaNetworkTest.nsRouter.ipv4.routingTable\""
par LoRaNetworkTest.nsRouter.ipv4.igmp crcMode "\"declared\""
attr enum declared,computed
par LoRaNetworkTest.nsRouter.ipv4.igmp enabled true
par LoRaNetworkTest.nsRouter.ipv4.igmp robustnessVariable 2
par LoRaNetworkTest.nsRouter.ipv4.igmp queryInterval 125s
attr unit s
par LoRaNetworkTest.nsRouter.ipv4.igmp queryResponseInterval 10s
attr unit s
par LoRaNetworkTest.nsRouter.ipv4.igmp groupMembershipInterval 260s
attr unit s
par LoRaNetworkTest.nsRouter.ipv4.igmp otherQuerierPresentInterval 255s
attr unit s
par LoRaNetworkTest.nsRouter.ipv4.igmp startupQueryInterval 31.25s
attr unit s
par LoRaNetworkTest.nsRouter.ipv4.igmp startupQueryCount 2
par LoRaNetworkTest.nsRouter.ipv4.igmp lastMemberQueryInterval 1s
attr unit s
par LoRaNetworkTest.nsRouter.ipv4.igmp lastMemberQueryCount 2
par LoRaNetworkTest.nsRouter.ipv4.igmp unsolicitedReportInterval 10s
attr unit s
par LoRaNetworkTest.nsRouter.ipv4.icmp typename "\"inet.networklayer.ipv4.Icmp\""
par LoRaNetworkTest.nsRouter.ipv4.icmp interfaceTableModule "\"LoRaNetworkTest.nsRouter.interfaceTable\""
par LoRaNetworkTest.nsRouter.ipv4.icmp routingTableModule "\"LoRaNetworkTest.nsRouter.ipv4.routingTable\""
par LoRaNetworkTest.nsRouter.ipv4.icmp crcMode "\"declared\""
attr enum declared,computed
attr mutable ""
par LoRaNetworkTest.nsRouter.ipv4.icmp quoteLength 8B
attr mutable ""
attr unit B
par LoRaNetworkTest.nsRouter.ipv4.mp typename "\"inet.common.MessageDispatcher\""
par LoRaNetworkTest.nsRouter.ipv4.mp displayStringTextFormat "\"processed %p pk (%l)\""
par LoRaNetworkTest.nsRouter.ipv4.mp forwardServiceRegistration true
par LoRaNetworkTest.nsRouter.ipv4.mp forwardProtocolRegistration true
par LoRaNetworkTest.nsRouter.ipv4.ip typename "\"inet.networklayer.ipv4.Ipv4\""
par LoRaNetworkTest.nsRouter.ipv4.ip interfaceTableModule "\"LoRaNetworkTest.nsRouter.interfaceTable\""
par LoRaNetworkTest.nsRouter.ipv4.ip routingTableModule "\"LoRaNetworkTest.nsRouter.ipv4.routingTable\""
par LoRaNetworkTest.nsRouter.ipv4.ip arpModule "\"LoRaNetworkTest.nsRouter.ipv4.arp\""
par LoRaNetworkTest.nsRouter.ipv4.ip icmpModule "\"LoRaNetworkTest.nsRouter.ipv4.icmp\""
par LoRaNetworkTest.nsRouter.ipv4.ip crcMode "\"declared\""
attr enum declared,computed
par LoRaNetworkTest.nsRouter.ipv4.ip timeToLive 32
par LoRaNetworkTest.nsRouter.ipv4.ip multicastTimeToLive 32
par LoRaNetworkTest.nsRouter.ipv4.ip fragmentTimeout 60s
attr unit s
par LoRaNetworkTest.nsRouter.ipv4.ip limitedBroadcast false
par LoRaNetworkTest.nsRouter.ipv4.ip directBroadcastInterfaces "\"\""
scalar LoRaNetworkTest.nsRouter.ipv4.ip packetDropAddressResolutionFailed:count 0
attr interpolationmode none
attr recordingmode count
attr source packetDropReasonIsAddressResolutionFailed(packetDropped)
attr title "packet drop: address resolution failed, count"
scalar LoRaNetworkTest.nsRouter.ipv4.ip packetDropAddressResolutionFailed:sum(packetBytes) 0
attr interpolationmode none
attr recordingmode sum(packetBytes)
attr source packetDropReasonIsAddressResolutionFailed(packetDropped)
attr title "packet drop: address resolution failed, sum(packetBytes)"
scalar LoRaNetworkTest.nsRouter.ipv4.ip packetDropHopLimitReached:count 0
attr interpolationmode none
attr recordingmode count
attr source packetDropReasonIsHopLimitReached(packetDropped)
attr title "packet drop: hop limit reached, count"
scalar LoRaNetworkTest.nsRouter.ipv4.ip packetDropHopLimitReached:sum(packetBytes) 0
attr interpolationmode none
attr recordingmode sum(packetBytes)
attr source packetDropReasonIsHopLimitReached(packetDropped)
attr title "packet drop: hop limit reached, sum(packetBytes)"
scalar LoRaNetworkTest.nsRouter.ipv4.ip packetDropForwardingDisabled:count 0
attr interpolationmode none
attr recordingmode count
attr source packetDropReasonIsForwardingDisabled(packetDropped)
attr title "packet drop: forwarding disabled, count"
scalar LoRaNetworkTest.nsRouter.ipv4.ip packetDropForwardingDisabled:sum(packetBytes) 0
attr interpolationmode none
attr recordingmode sum(packetBytes)
attr source packetDropReasonIsForwardingDisabled(packetDropped)
attr title "packet drop: forwarding disabled, sum(packetBytes)"
scalar LoRaNetworkTest.nsRouter.ipv4.ip packetDropNoInterfaceFound:count 0
attr interpolationmode none
attr recordingmode count
attr source packetDropReasonIsNoInterfaceFound(packetDropped)
attr title "packet drop: no interface found, count"
scalar LoRaNetworkTest.nsRouter.ipv4.ip packetDropNoInterfaceFound:sum(packetBytes) 0
attr interpolationmode none
attr recordingmode sum(packetBytes)
attr source packetDropReasonIsNoInterfaceFound(packetDropped)
attr title "packet drop: no interface found, sum(packetBytes)"
scalar LoRaNetworkTest.nsRouter.ipv4.ip packetDropNoRouteFound:count 0
attr interpolationmode none
attr recordingmode count
attr source packetDropReasonIsNoRouteFound(packetDropped)
attr title "packet drop: no route found, count"
scalar LoRaNetworkTest.nsRouter.ipv4.ip packetDropNoRouteFound:sum(packetBytes) 0
attr interpolationmode none
attr recordingmode sum(packetBytes)
attr source packetDropReasonIsNoRouteFound(packetDropped)
attr title "packet drop: no route found, sum(packetBytes)"
scalar LoRaNetworkTest.nsRouter.ipv4.ip packetDropUndefined:count 0
attr interpolationmode none
attr recordingmode count
attr source packetDropReasonIsUndefined(packetDropped)
attr title "packet drop: undefined, count"
scalar LoRaNetworkTest.nsRouter.ipv4.ip packetDropUndefined:sum(packetBytes) 0
attr interpolationmode none
attr recordingmode sum(packetBytes)
attr source packetDropReasonIsUndefined(packetDropped)
attr title "packet drop: undefined, sum(packetBytes)"
par LoRaNetworkTest.nsRouter.ipv4.arp typename "\"inet.networklayer.arp.ipv4.Arp\""
par LoRaNetworkTest.nsRouter.ipv4.arp interfaceTableModule "\"LoRaNetworkTest.nsRouter.interfaceTable\""
par LoRaNetworkTest.nsRouter.ipv4.arp routingTableModule "\"LoRaNetworkTest.nsRouter.ipv4.routingTable\""
par LoRaNetworkTest.nsRouter.ipv4.arp retryTimeout 1s
attr unit s
par LoRaNetworkTest.nsRouter.ipv4.arp retryCount 3
par LoRaNetworkTest.nsRouter.ipv4.arp cacheTimeout 120s
attr unit s
par LoRaNetworkTest.nsRouter.ipv4.arp proxyArpInterfaces "\"*\""
scalar LoRaNetworkTest.nsRouter.ipv4.arp arpResolutionFailed:count 0
attr recordingmode count
attr title "ARP failed resolutions, count"
scalar LoRaNetworkTest.nsRouter.ipv4.arp arpResolutionCompleted:count 81
attr recordingmode count
attr title "ARP completed resolutions, count"
scalar LoRaNetworkTest.nsRouter.ipv4.arp arpResolutionInitiated:count 81
attr recordingmode count
attr title "ARP initiated resolutions, count"
scalar LoRaNetworkTest.nsRouter.ipv4.arp arpReplySent:count 0
attr recordingmode count
attr source arpReplySent
attr title "ARP replies sent, count"
scalar LoRaNetworkTest.nsRouter.ipv4.arp arpReplySent:sum(packetBytes) 0
attr recordingmode sum(packetBytes)
attr source arpReplySent
attr title "ARP replies sent, sum(packetBytes)"
scalar LoRaNetworkTest.nsRouter.ipv4.arp arpRequestSent:count 81
attr recordingmode count
attr source arpRequestSent
attr title "ARP request sent, count"
scalar LoRaNetworkTest.nsRouter.ipv4.arp arpRequestSent:sum(packetBytes) 2268
attr recordingmode sum(packetBytes)
attr source arpRequestSent
attr title "ARP request sent, sum(packetBytes)"
par LoRaNetworkTest.nsRouter.ipv4.lp typename "\"inet.common.MessageDispatcher\""
par LoRaNetworkTest.nsRouter.ipv4.lp displayStringTextFormat "\"processed %p pk (%l)\""
par LoRaNetworkTest.nsRouter.ipv4.lp forwardServiceRegistration true
par LoRaNetworkTest.nsRouter.ipv4.lp forwardProtocolRegistration true
par LoRaNetworkTest.nsRouter.ipv4 typename "\"inet.networklayer.ipv4.Ipv4NetworkLayer\""
par LoRaNetworkTest.nsRouter.ipv4 forwarding true
par LoRaNetworkTest.nsRouter.ipv4 multicastForwarding false
par LoRaNetworkTest.nsRouter.ipv4 interfaceTableModule "\"LoRaNetworkTest.nsRouter.interfaceTable\""
par LoRaNetworkTest.nsRouter.ipv4 displayStringTextFormat "\"%i\""
par LoRaNetworkTest.nsRouter.nl typename "\"inet.common.MessageDispatcher\""
par LoRaNetworkTest.nsRouter.nl displayStringTextFormat "\"processed %p pk (%l)\""
par LoRaNetworkTest.nsRouter.nl forwardServiceRegistration true
par LoRaNetworkTest.nsRouter.nl forwardProtocolRegistration true
par LoRaNetworkTest.nsRouter.tn typename "\"inet.common.MessageDispatcher\""
par LoRaNetworkTest.nsRouter.tn displayStringTextFormat "\"processed %p pk (%l)\""
par LoRaNetworkTest.nsRouter.tn forwardServiceRegistration true
par LoRaNetworkTest.nsRouter.tn forwardProtocolRegistration true
par LoRaNetworkTest.nsRouter.at typename "\"inet.common.MessageDispatcher\""
par LoRaNetworkTest.nsRouter.at displayStringTextFormat "\"processed %p pk (%l)\""
par LoRaNetworkTest.nsRouter.at forwardServiceRegistration true
par LoRaNetworkTest.nsRouter.at forwardProtocolRegistration true
par LoRaNetworkTest.nsRouter typename "\"inet.node.inet.Router\""
par LoRaNetworkTest.nsRouter hasStatus false
par LoRaNetworkTest.nsRouter osgModel "\"\""
par LoRaNetworkTest.nsRouter osgModelColor "\"\""
par LoRaNetworkTest.nsRouter canvasImage "\"\""
par LoRaNetworkTest.nsRouter canvasImageColor "\"\""
par LoRaNetworkTest.nsRouter recordPcap false
par LoRaNetworkTest.nsRouter numPcapRecorders 0
par LoRaNetworkTest.nsRouter numLoInterfaces 1
par LoRaNetworkTest.nsRouter numWlanInterfaces 0
par LoRaNetworkTest.nsRouter numEthInterfaces 0
par LoRaNetworkTest.nsRouter numPppInterfaces 0
par LoRaNetworkTest.nsRouter numTunInterfaces 0
par LoRaNetworkTest.nsRouter numVirtInterfaces 0
par LoRaNetworkTest.nsRouter fcsMode "\"declared\""
attr enum declared,computed
par LoRaNetworkTest.nsRouter hasIpv4 true
par LoRaNetworkTest.nsRouter hasIpv6 false
par LoRaNetworkTest.nsRouter hasGn false
par LoRaNetworkTest.nsRouter forwarding true
par LoRaNetworkTest.nsRouter multicastForwarding false
par LoRaNetworkTest.nsRouter hasUdp false
par LoRaNetworkTest.nsRouter hasTcp false
par LoRaNetworkTest.nsRouter hasSctp false
par LoRaNetworkTest.nsRouter numApps 0
par LoRaNetworkTest.nsRouter hasEigrp false
par LoRaNetworkTest.nsRouter hasOspf false
par LoRaNetworkTest.nsRouter hasRip false
par LoRaNetworkTest.nsRouter hasBgp false
par LoRaNetworkTest.nsRouter hasPim false
par LoRaNetworkTest.nsRouter hasDhcp false
par LoRaNetworkTest typename "\"flora.simulations.LoRaNetworkTest\""
par LoRaNetworkTest numberOfNodes 10
par LoRaNetworkTest numberOfGateways 1
par LoRaNetworkTest networkSizeX 500
par LoRaNetworkTest networkSizeY 500

